pcf
* control data
restart estimation
7 1000 7 0 1
1 1 single point
10 2.0 0.3 0.05 10
5.0 5.0 0.001
0.1
50 1e-07 10 4 0.005 10 1e-05
0 0 0 0 nojcosave nojcosaveitn noverboserec noreisaveitn parsaveitn
* singular value decomposition
1
3 1e-06
0
* parameter groups
q1 relative 0.01 0.0 switch 2.0 parabolic
q5 relative 0.01 0.0 switch 2.0 parabolic
q9 relative 0.01 0.0 switch 2.0 parabolic
r relative 0.01 0.0 switch 2.0 parabolic
p1 relative 0.01 0.0 switch 2.0 parabolic
p5 relative 0.01 0.0 switch 2.0 parabolic
p9 relative 0.01 0.0 switch 2.0 parabolic
* parameter data
q1 none relative 0.00125 1e-20 1 q1 1.0 0.0
q5 none relative 0.000125 1e-20 1 q5 1.0 0.0
q9 none relative 0.000125 1e-20 1 q9 1.0 0.0
r none relative 0.003 1e-20 1 r 1.0 0.0
p1 fixed relative 0.00101 -5 5 p1 1.0 0.0
p5 fixed relative 0.00222 -5 5 p5 1.0 0.0
p9 fixed relative 0.00333 -5 5 p9 1.0 0.0
* observation groups
obsgroup
* observation data
intercept_0_1   0.08793223260032393 1.0 obsgroup
cos_0_1         -0.00947818395443636 1.0 obsgroup
sin_0_1         0.016032416280523064 1.0 obsgroup
intercept_0_2   0.08793223260032393 1.0 obsgroup
cos_0_2         -0.00947818395443636 1.0 obsgroup
sin_0_2         0.016032416280523064 1.0 obsgroup
intercept_0_3   0.08793223260032393 1.0 obsgroup
cos_0_3         -0.00947818395443636 1.0 obsgroup
sin_0_3         0.016032416280523064 1.0 obsgroup
intercept_0_4   0.08793223260032393 1.0 obsgroup
cos_0_4         -0.00947818395443636 1.0 obsgroup
sin_0_4         0.016032416280523064 1.0 obsgroup
intercept_0_5   0.08793223260032393 1.0 obsgroup
cos_0_5         -0.00947818395443636 1.0 obsgroup
sin_0_5         0.016032416280523064 1.0 obsgroup
intercept_0_6   0.08793223260032393 1.0 obsgroup
cos_0_6         -0.00947818395443636 1.0 obsgroup
sin_0_6         0.016032416280523064 1.0 obsgroup
intercept_0_7   0.08793223260032393 1.0 obsgroup
cos_0_7         -0.00947818395443636 1.0 obsgroup
sin_0_7         0.016032416280523064 1.0 obsgroup
intercept_0_8   0.08793223260032393 1.0 obsgroup
cos_0_8         -0.00947818395443636 1.0 obsgroup
sin_0_8         0.016032416280523064 1.0 obsgroup
intercept_0_9   0.08793223260032393 1.0 obsgroup
cos_0_9         -0.00947818395443636 1.0 obsgroup
sin_0_9         0.016032416280523064 1.0 obsgroup
intercept_0_10  0.08793223260032393 1.0 obsgroup
cos_0_10        -0.00947818395443636 1.0 obsgroup
sin_0_10        0.016032416280523064 1.0 obsgroup
intercept_0_11  0.08793223260032393 1.0 obsgroup
cos_0_11        -0.00947818395443636 1.0 obsgroup
sin_0_11        0.016032416280523064 1.0 obsgroup
intercept_0_12  0.08793223260032393 1.0 obsgroup
cos_0_12        -0.00947818395443636 1.0 obsgroup
sin_0_12        0.016032416280523064 1.0 obsgroup
intercept_0_13  0.08793223260032393 1.0 obsgroup
cos_0_13        -0.00947818395443636 1.0 obsgroup
sin_0_13        0.016032416280523064 1.0 obsgroup
intercept_0_14  0.08793223260032393 1.0 obsgroup
cos_0_14        -0.00947818395443636 1.0 obsgroup
sin_0_14        0.016032416280523064 1.0 obsgroup
intercept_0_15  0.08793223260032393 1.0 obsgroup
cos_0_15        -0.00947818395443636 1.0 obsgroup
sin_0_15        0.016032416280523064 1.0 obsgroup
intercept_0_16  0.08793223260032393 1.0 obsgroup
cos_0_16        -0.00947818395443636 1.0 obsgroup
sin_0_16        0.016032416280523064 1.0 obsgroup
intercept_0_17  0.08793223260032393 1.0 obsgroup
cos_0_17        -0.00947818395443636 1.0 obsgroup
sin_0_17        0.016032416280523064 1.0 obsgroup
intercept_0_18  0.08793223260032393 1.0 obsgroup
cos_0_18        -0.00947818395443636 1.0 obsgroup
sin_0_18        0.016032416280523064 1.0 obsgroup
intercept_0_19  0.08793223260032393 1.0 obsgroup
cos_0_19        -0.00947818395443636 1.0 obsgroup
sin_0_19        0.016032416280523064 1.0 obsgroup
intercept_0_20  0.08793223260032393 1.0 obsgroup
cos_0_20        -0.00947818395443636 1.0 obsgroup
sin_0_20        0.016032416280523064 1.0 obsgroup
intercept_0_21  0.08793223260032393 1.0 obsgroup
cos_0_21        -0.00947818395443636 1.0 obsgroup
sin_0_21        0.016032416280523064 1.0 obsgroup
intercept_0_22  0.08793223260032393 1.0 obsgroup
cos_0_22        -0.00947818395443636 1.0 obsgroup
sin_0_22        0.016032416280523064 1.0 obsgroup
intercept_0_23  0.08793223260032393 1.0 obsgroup
cos_0_23        -0.00947818395443636 1.0 obsgroup
sin_0_23        0.016032416280523064 1.0 obsgroup
intercept_0_24  0.08793223260032393 1.0 obsgroup
cos_0_24        -0.00947818395443636 1.0 obsgroup
sin_0_24        0.016032416280523064 1.0 obsgroup
intercept_0_25  0.07705875956918401 1.0 obsgroup
cos_0_25        -0.01356704864460511 1.0 obsgroup
sin_0_25        0.013851484496582887 1.0 obsgroup
intercept_0_26  0.07705875956918401 1.0 obsgroup
cos_0_26        -0.01356704864460511 1.0 obsgroup
sin_0_26        0.013851484496582887 1.0 obsgroup
intercept_0_27  0.07705875956918401 1.0 obsgroup
cos_0_27        -0.01356704864460511 1.0 obsgroup
sin_0_27        0.013851484496582887 1.0 obsgroup
intercept_0_28  0.07705875956918401 1.0 obsgroup
cos_0_28        -0.01356704864460511 1.0 obsgroup
sin_0_28        0.013851484496582887 1.0 obsgroup
intercept_0_29  0.07705875956918401 1.0 obsgroup
cos_0_29        -0.01356704864460511 1.0 obsgroup
sin_0_29        0.013851484496582887 1.0 obsgroup
intercept_0_30  0.07705875956918401 1.0 obsgroup
cos_0_30        -0.01356704864460511 1.0 obsgroup
sin_0_30        0.013851484496582887 1.0 obsgroup
intercept_0_31  0.07705875956918401 1.0 obsgroup
cos_0_31        -0.01356704864460511 1.0 obsgroup
sin_0_31        0.013851484496582887 1.0 obsgroup
intercept_0_32  0.07705875956918401 1.0 obsgroup
cos_0_32        -0.01356704864460511 1.0 obsgroup
sin_0_32        0.013851484496582887 1.0 obsgroup
intercept_0_33  0.07705875956918401 1.0 obsgroup
cos_0_33        -0.01356704864460511 1.0 obsgroup
sin_0_33        0.013851484496582887 1.0 obsgroup
intercept_0_34  0.07705875956918401 1.0 obsgroup
cos_0_34        -0.01356704864460511 1.0 obsgroup
sin_0_34        0.013851484496582887 1.0 obsgroup
intercept_0_35  0.07705875956918401 1.0 obsgroup
cos_0_35        -0.01356704864460511 1.0 obsgroup
sin_0_35        0.013851484496582887 1.0 obsgroup
intercept_0_36  0.07705875956918401 1.0 obsgroup
cos_0_36        -0.01356704864460511 1.0 obsgroup
sin_0_36        0.013851484496582887 1.0 obsgroup
intercept_0_37  0.07705875956918401 1.0 obsgroup
cos_0_37        -0.01356704864460511 1.0 obsgroup
sin_0_37        0.013851484496582887 1.0 obsgroup
intercept_0_38  0.07705875956918401 1.0 obsgroup
cos_0_38        -0.01356704864460511 1.0 obsgroup
sin_0_38        0.013851484496582887 1.0 obsgroup
intercept_0_39  0.07705875956918401 1.0 obsgroup
cos_0_39        -0.01356704864460511 1.0 obsgroup
sin_0_39        0.013851484496582887 1.0 obsgroup
intercept_0_40  0.07705875956918401 1.0 obsgroup
cos_0_40        -0.01356704864460511 1.0 obsgroup
sin_0_40        0.013851484496582887 1.0 obsgroup
intercept_0_41  0.07705875956918401 1.0 obsgroup
cos_0_41        -0.01356704864460511 1.0 obsgroup
sin_0_41        0.013851484496582887 1.0 obsgroup
intercept_0_42  0.07705875956918401 1.0 obsgroup
cos_0_42        -0.01356704864460511 1.0 obsgroup
sin_0_42        0.013851484496582887 1.0 obsgroup
intercept_0_43  0.07705875956918401 1.0 obsgroup
cos_0_43        -0.01356704864460511 1.0 obsgroup
sin_0_43        0.013851484496582887 1.0 obsgroup
intercept_0_44  0.07705875956918401 1.0 obsgroup
cos_0_44        -0.01356704864460511 1.0 obsgroup
sin_0_44        0.013851484496582887 1.0 obsgroup
intercept_0_45  0.07705875956918401 1.0 obsgroup
cos_0_45        -0.01356704864460511 1.0 obsgroup
sin_0_45        0.013851484496582887 1.0 obsgroup
intercept_0_46  0.07705875956918401 1.0 obsgroup
cos_0_46        -0.01356704864460511 1.0 obsgroup
sin_0_46        0.013851484496582887 1.0 obsgroup
intercept_0_47  0.07705875956918401 1.0 obsgroup
cos_0_47        -0.01356704864460511 1.0 obsgroup
sin_0_47        0.013851484496582887 1.0 obsgroup
intercept_0_48  0.07705875956918401 1.0 obsgroup
cos_0_48        -0.01356704864460511 1.0 obsgroup
sin_0_48        0.013851484496582887 1.0 obsgroup
intercept_0_49  0.07705875956918401 1.0 obsgroup
cos_0_49        -0.01356704864460511 1.0 obsgroup
sin_0_49        0.013851484496582887 1.0 obsgroup
intercept_0_50  0.07705875956918401 1.0 obsgroup
cos_0_50        -0.01356704864460511 1.0 obsgroup
sin_0_50        0.013851484496582887 1.0 obsgroup
intercept_1_1   0.16603802798372055 1.0 obsgroup
cos_1_1         -0.023267314548848672 1.0 obsgroup
sin_1_1         -0.016172579965515663 1.0 obsgroup
intercept_1_2   0.16603802798372055 1.0 obsgroup
cos_1_2         -0.023267314548848672 1.0 obsgroup
sin_1_2         -0.016172579965515663 1.0 obsgroup
intercept_1_3   0.16603802798372055 1.0 obsgroup
cos_1_3         -0.023267314548848672 1.0 obsgroup
sin_1_3         -0.016172579965515663 1.0 obsgroup
intercept_1_4   0.16603802798372055 1.0 obsgroup
cos_1_4         -0.023267314548848672 1.0 obsgroup
sin_1_4         -0.016172579965515663 1.0 obsgroup
intercept_1_5   0.16603802798372055 1.0 obsgroup
cos_1_5         -0.023267314548848672 1.0 obsgroup
sin_1_5         -0.016172579965515663 1.0 obsgroup
intercept_1_6   0.16603802798372055 1.0 obsgroup
cos_1_6         -0.023267314548848672 1.0 obsgroup
sin_1_6         -0.016172579965515663 1.0 obsgroup
intercept_1_7   0.16603802798372055 1.0 obsgroup
cos_1_7         -0.023267314548848672 1.0 obsgroup
sin_1_7         -0.016172579965515663 1.0 obsgroup
intercept_1_8   0.16603802798372055 1.0 obsgroup
cos_1_8         -0.023267314548848672 1.0 obsgroup
sin_1_8         -0.016172579965515663 1.0 obsgroup
intercept_1_9   0.16603802798372055 1.0 obsgroup
cos_1_9         -0.023267314548848672 1.0 obsgroup
sin_1_9         -0.016172579965515663 1.0 obsgroup
intercept_1_10  0.16603802798372055 1.0 obsgroup
cos_1_10        -0.023267314548848672 1.0 obsgroup
sin_1_10        -0.016172579965515663 1.0 obsgroup
intercept_1_11  0.16603802798372055 1.0 obsgroup
cos_1_11        -0.023267314548848672 1.0 obsgroup
sin_1_11        -0.016172579965515663 1.0 obsgroup
intercept_1_12  0.16603802798372055 1.0 obsgroup
cos_1_12        -0.023267314548848672 1.0 obsgroup
sin_1_12        -0.016172579965515663 1.0 obsgroup
intercept_1_13  0.16603802798372055 1.0 obsgroup
cos_1_13        -0.023267314548848672 1.0 obsgroup
sin_1_13        -0.016172579965515663 1.0 obsgroup
intercept_1_14  0.16603802798372055 1.0 obsgroup
cos_1_14        -0.023267314548848672 1.0 obsgroup
sin_1_14        -0.016172579965515663 1.0 obsgroup
intercept_1_15  0.16603802798372055 1.0 obsgroup
cos_1_15        -0.023267314548848672 1.0 obsgroup
sin_1_15        -0.016172579965515663 1.0 obsgroup
intercept_1_16  0.16603802798372055 1.0 obsgroup
cos_1_16        -0.023267314548848672 1.0 obsgroup
sin_1_16        -0.016172579965515663 1.0 obsgroup
intercept_1_17  0.16603802798372055 1.0 obsgroup
cos_1_17        -0.023267314548848672 1.0 obsgroup
sin_1_17        -0.016172579965515663 1.0 obsgroup
intercept_1_18  0.16603802798372055 1.0 obsgroup
cos_1_18        -0.023267314548848672 1.0 obsgroup
sin_1_18        -0.016172579965515663 1.0 obsgroup
intercept_1_19  0.16603802798372055 1.0 obsgroup
cos_1_19        -0.023267314548848672 1.0 obsgroup
sin_1_19        -0.016172579965515663 1.0 obsgroup
intercept_1_20  0.16603802798372055 1.0 obsgroup
cos_1_20        -0.023267314548848672 1.0 obsgroup
sin_1_20        -0.016172579965515663 1.0 obsgroup
intercept_1_21  0.16603802798372055 1.0 obsgroup
cos_1_21        -0.023267314548848672 1.0 obsgroup
sin_1_21        -0.016172579965515663 1.0 obsgroup
intercept_1_22  0.16603802798372055 1.0 obsgroup
cos_1_22        -0.023267314548848672 1.0 obsgroup
sin_1_22        -0.016172579965515663 1.0 obsgroup
intercept_1_23  0.16603802798372055 1.0 obsgroup
cos_1_23        -0.023267314548848672 1.0 obsgroup
sin_1_23        -0.016172579965515663 1.0 obsgroup
intercept_1_24  0.16603802798372055 1.0 obsgroup
cos_1_24        -0.023267314548848672 1.0 obsgroup
sin_1_24        -0.016172579965515663 1.0 obsgroup
intercept_1_25  0.12540913112167934 1.0 obsgroup
cos_1_25        -0.08354711344167653 1.0 obsgroup
sin_1_25        -0.016440272553852362 1.0 obsgroup
intercept_1_26  0.12540913112167934 1.0 obsgroup
cos_1_26        -0.08354711344167653 1.0 obsgroup
sin_1_26        -0.016440272553852362 1.0 obsgroup
intercept_1_27  0.12540913112167934 1.0 obsgroup
cos_1_27        -0.08354711344167653 1.0 obsgroup
sin_1_27        -0.016440272553852362 1.0 obsgroup
intercept_1_28  0.12540913112167934 1.0 obsgroup
cos_1_28        -0.08354711344167653 1.0 obsgroup
sin_1_28        -0.016440272553852362 1.0 obsgroup
intercept_1_29  0.12540913112167934 1.0 obsgroup
cos_1_29        -0.08354711344167653 1.0 obsgroup
sin_1_29        -0.016440272553852362 1.0 obsgroup
intercept_1_30  0.12540913112167934 1.0 obsgroup
cos_1_30        -0.08354711344167653 1.0 obsgroup
sin_1_30        -0.016440272553852362 1.0 obsgroup
intercept_1_31  0.12540913112167934 1.0 obsgroup
cos_1_31        -0.08354711344167653 1.0 obsgroup
sin_1_31        -0.016440272553852362 1.0 obsgroup
intercept_1_32  0.12540913112167934 1.0 obsgroup
cos_1_32        -0.08354711344167653 1.0 obsgroup
sin_1_32        -0.016440272553852362 1.0 obsgroup
intercept_1_33  0.12540913112167934 1.0 obsgroup
cos_1_33        -0.08354711344167653 1.0 obsgroup
sin_1_33        -0.016440272553852362 1.0 obsgroup
intercept_1_34  0.12540913112167934 1.0 obsgroup
cos_1_34        -0.08354711344167653 1.0 obsgroup
sin_1_34        -0.016440272553852362 1.0 obsgroup
intercept_1_35  0.12540913112167934 1.0 obsgroup
cos_1_35        -0.08354711344167653 1.0 obsgroup
sin_1_35        -0.016440272553852362 1.0 obsgroup
intercept_1_36  0.12540913112167934 1.0 obsgroup
cos_1_36        -0.08354711344167653 1.0 obsgroup
sin_1_36        -0.016440272553852362 1.0 obsgroup
intercept_1_37  0.12540913112167934 1.0 obsgroup
cos_1_37        -0.08354711344167653 1.0 obsgroup
sin_1_37        -0.016440272553852362 1.0 obsgroup
intercept_1_38  0.12540913112167934 1.0 obsgroup
cos_1_38        -0.08354711344167653 1.0 obsgroup
sin_1_38        -0.016440272553852362 1.0 obsgroup
intercept_1_39  0.12540913112167934 1.0 obsgroup
cos_1_39        -0.08354711344167653 1.0 obsgroup
sin_1_39        -0.016440272553852362 1.0 obsgroup
intercept_1_40  0.12540913112167934 1.0 obsgroup
cos_1_40        -0.08354711344167653 1.0 obsgroup
sin_1_40        -0.016440272553852362 1.0 obsgroup
intercept_1_41  0.12540913112167934 1.0 obsgroup
cos_1_41        -0.08354711344167653 1.0 obsgroup
sin_1_41        -0.016440272553852362 1.0 obsgroup
intercept_1_42  0.12540913112167934 1.0 obsgroup
cos_1_42        -0.08354711344167653 1.0 obsgroup
sin_1_42        -0.016440272553852362 1.0 obsgroup
intercept_1_43  0.12540913112167934 1.0 obsgroup
cos_1_43        -0.08354711344167653 1.0 obsgroup
sin_1_43        -0.016440272553852362 1.0 obsgroup
intercept_1_44  0.12540913112167934 1.0 obsgroup
cos_1_44        -0.08354711344167653 1.0 obsgroup
sin_1_44        -0.016440272553852362 1.0 obsgroup
intercept_1_45  0.12540913112167934 1.0 obsgroup
cos_1_45        -0.08354711344167653 1.0 obsgroup
sin_1_45        -0.016440272553852362 1.0 obsgroup
intercept_1_46  0.12540913112167934 1.0 obsgroup
cos_1_46        -0.08354711344167653 1.0 obsgroup
sin_1_46        -0.016440272553852362 1.0 obsgroup
intercept_1_47  0.12540913112167934 1.0 obsgroup
cos_1_47        -0.08354711344167653 1.0 obsgroup
sin_1_47        -0.016440272553852362 1.0 obsgroup
intercept_1_48  0.12540913112167934 1.0 obsgroup
cos_1_48        -0.08354711344167653 1.0 obsgroup
sin_1_48        -0.016440272553852362 1.0 obsgroup
intercept_1_49  0.12540913112167934 1.0 obsgroup
cos_1_49        -0.08354711344167653 1.0 obsgroup
sin_1_49        -0.016440272553852362 1.0 obsgroup
intercept_1_50  0.12540913112167934 1.0 obsgroup
cos_1_50        -0.08354711344167653 1.0 obsgroup
sin_1_50        -0.016440272553852362 1.0 obsgroup
intercept_2_1   0.09647492787464255 1.0 obsgroup
cos_2_1         0.011330073084346462 1.0 obsgroup
sin_2_1         0.01907933565549543 1.0 obsgroup
intercept_2_2   0.09647492787464255 1.0 obsgroup
cos_2_2         0.011330073084346462 1.0 obsgroup
sin_2_2         0.01907933565549543 1.0 obsgroup
intercept_2_3   0.09647492787464255 1.0 obsgroup
cos_2_3         0.011330073084346462 1.0 obsgroup
sin_2_3         0.01907933565549543 1.0 obsgroup
intercept_2_4   0.09647492787464255 1.0 obsgroup
cos_2_4         0.011330073084346462 1.0 obsgroup
sin_2_4         0.01907933565549543 1.0 obsgroup
intercept_2_5   0.09647492787464255 1.0 obsgroup
cos_2_5         0.011330073084346462 1.0 obsgroup
sin_2_5         0.01907933565549543 1.0 obsgroup
intercept_2_6   0.09647492787464255 1.0 obsgroup
cos_2_6         0.011330073084346462 1.0 obsgroup
sin_2_6         0.01907933565549543 1.0 obsgroup
intercept_2_7   0.09647492787464255 1.0 obsgroup
cos_2_7         0.011330073084346462 1.0 obsgroup
sin_2_7         0.01907933565549543 1.0 obsgroup
intercept_2_8   0.09647492787464255 1.0 obsgroup
cos_2_8         0.011330073084346462 1.0 obsgroup
sin_2_8         0.01907933565549543 1.0 obsgroup
intercept_2_9   0.09647492787464255 1.0 obsgroup
cos_2_9         0.011330073084346462 1.0 obsgroup
sin_2_9         0.01907933565549543 1.0 obsgroup
intercept_2_10  0.09647492787464255 1.0 obsgroup
cos_2_10        0.011330073084346462 1.0 obsgroup
sin_2_10        0.01907933565549543 1.0 obsgroup
intercept_2_11  0.09647492787464255 1.0 obsgroup
cos_2_11        0.011330073084346462 1.0 obsgroup
sin_2_11        0.01907933565549543 1.0 obsgroup
intercept_2_12  0.09647492787464255 1.0 obsgroup
cos_2_12        0.011330073084346462 1.0 obsgroup
sin_2_12        0.01907933565549543 1.0 obsgroup
intercept_2_13  0.09647492787464255 1.0 obsgroup
cos_2_13        0.011330073084346462 1.0 obsgroup
sin_2_13        0.01907933565549543 1.0 obsgroup
intercept_2_14  0.09647492787464255 1.0 obsgroup
cos_2_14        0.011330073084346462 1.0 obsgroup
sin_2_14        0.01907933565549543 1.0 obsgroup
intercept_2_15  0.09647492787464255 1.0 obsgroup
cos_2_15        0.011330073084346462 1.0 obsgroup
sin_2_15        0.01907933565549543 1.0 obsgroup
intercept_2_16  0.09647492787464255 1.0 obsgroup
cos_2_16        0.011330073084346462 1.0 obsgroup
sin_2_16        0.01907933565549543 1.0 obsgroup
intercept_2_17  0.09647492787464255 1.0 obsgroup
cos_2_17        0.011330073084346462 1.0 obsgroup
sin_2_17        0.01907933565549543 1.0 obsgroup
intercept_2_18  0.09647492787464255 1.0 obsgroup
cos_2_18        0.011330073084346462 1.0 obsgroup
sin_2_18        0.01907933565549543 1.0 obsgroup
intercept_2_19  0.09647492787464255 1.0 obsgroup
cos_2_19        0.011330073084346462 1.0 obsgroup
sin_2_19        0.01907933565549543 1.0 obsgroup
intercept_2_20  0.09647492787464255 1.0 obsgroup
cos_2_20        0.011330073084346462 1.0 obsgroup
sin_2_20        0.01907933565549543 1.0 obsgroup
intercept_2_21  0.09647492787464255 1.0 obsgroup
cos_2_21        0.011330073084346462 1.0 obsgroup
sin_2_21        0.01907933565549543 1.0 obsgroup
intercept_2_22  0.09647492787464255 1.0 obsgroup
cos_2_22        0.011330073084346462 1.0 obsgroup
sin_2_22        0.01907933565549543 1.0 obsgroup
intercept_2_23  0.09647492787464255 1.0 obsgroup
cos_2_23        0.011330073084346462 1.0 obsgroup
sin_2_23        0.01907933565549543 1.0 obsgroup
intercept_2_24  0.09647492787464255 1.0 obsgroup
cos_2_24        0.011330073084346462 1.0 obsgroup
sin_2_24        0.01907933565549543 1.0 obsgroup
intercept_2_25  0.0854007442898707 1.0 obsgroup
cos_2_25        -0.00040450149093796176 1.0 obsgroup
sin_2_25        0.01652622755271906 1.0 obsgroup
intercept_2_26  0.0854007442898707 1.0 obsgroup
cos_2_26        -0.00040450149093796176 1.0 obsgroup
sin_2_26        0.01652622755271906 1.0 obsgroup
intercept_2_27  0.0854007442898707 1.0 obsgroup
cos_2_27        -0.00040450149093796176 1.0 obsgroup
sin_2_27        0.01652622755271906 1.0 obsgroup
intercept_2_28  0.0854007442898707 1.0 obsgroup
cos_2_28        -0.00040450149093796176 1.0 obsgroup
sin_2_28        0.01652622755271906 1.0 obsgroup
intercept_2_29  0.0854007442898707 1.0 obsgroup
cos_2_29        -0.00040450149093796176 1.0 obsgroup
sin_2_29        0.01652622755271906 1.0 obsgroup
intercept_2_30  0.0854007442898707 1.0 obsgroup
cos_2_30        -0.00040450149093796176 1.0 obsgroup
sin_2_30        0.01652622755271906 1.0 obsgroup
intercept_2_31  0.0854007442898707 1.0 obsgroup
cos_2_31        -0.00040450149093796176 1.0 obsgroup
sin_2_31        0.01652622755271906 1.0 obsgroup
intercept_2_32  0.0854007442898707 1.0 obsgroup
cos_2_32        -0.00040450149093796176 1.0 obsgroup
sin_2_32        0.01652622755271906 1.0 obsgroup
intercept_2_33  0.0854007442898707 1.0 obsgroup
cos_2_33        -0.00040450149093796176 1.0 obsgroup
sin_2_33        0.01652622755271906 1.0 obsgroup
intercept_2_34  0.0854007442898707 1.0 obsgroup
cos_2_34        -0.00040450149093796176 1.0 obsgroup
sin_2_34        0.01652622755271906 1.0 obsgroup
intercept_2_35  0.0854007442898707 1.0 obsgroup
cos_2_35        -0.00040450149093796176 1.0 obsgroup
sin_2_35        0.01652622755271906 1.0 obsgroup
intercept_2_36  0.0854007442898707 1.0 obsgroup
cos_2_36        -0.00040450149093796176 1.0 obsgroup
sin_2_36        0.01652622755271906 1.0 obsgroup
intercept_2_37  0.0854007442898707 1.0 obsgroup
cos_2_37        -0.00040450149093796176 1.0 obsgroup
sin_2_37        0.01652622755271906 1.0 obsgroup
intercept_2_38  0.0854007442898707 1.0 obsgroup
cos_2_38        -0.00040450149093796176 1.0 obsgroup
sin_2_38        0.01652622755271906 1.0 obsgroup
intercept_2_39  0.0854007442898707 1.0 obsgroup
cos_2_39        -0.00040450149093796176 1.0 obsgroup
sin_2_39        0.01652622755271906 1.0 obsgroup
intercept_2_40  0.0854007442898707 1.0 obsgroup
cos_2_40        -0.00040450149093796176 1.0 obsgroup
sin_2_40        0.01652622755271906 1.0 obsgroup
intercept_2_41  0.0854007442898707 1.0 obsgroup
cos_2_41        -0.00040450149093796176 1.0 obsgroup
sin_2_41        0.01652622755271906 1.0 obsgroup
intercept_2_42  0.0854007442898707 1.0 obsgroup
cos_2_42        -0.00040450149093796176 1.0 obsgroup
sin_2_42        0.01652622755271906 1.0 obsgroup
intercept_2_43  0.0854007442898707 1.0 obsgroup
cos_2_43        -0.00040450149093796176 1.0 obsgroup
sin_2_43        0.01652622755271906 1.0 obsgroup
intercept_2_44  0.0854007442898707 1.0 obsgroup
cos_2_44        -0.00040450149093796176 1.0 obsgroup
sin_2_44        0.01652622755271906 1.0 obsgroup
intercept_2_45  0.0854007442898707 1.0 obsgroup
cos_2_45        -0.00040450149093796176 1.0 obsgroup
sin_2_45        0.01652622755271906 1.0 obsgroup
intercept_2_46  0.0854007442898707 1.0 obsgroup
cos_2_46        -0.00040450149093796176 1.0 obsgroup
sin_2_46        0.01652622755271906 1.0 obsgroup
intercept_2_47  0.0854007442898707 1.0 obsgroup
cos_2_47        -0.00040450149093796176 1.0 obsgroup
sin_2_47        0.01652622755271906 1.0 obsgroup
intercept_2_48  0.0854007442898707 1.0 obsgroup
cos_2_48        -0.00040450149093796176 1.0 obsgroup
sin_2_48        0.01652622755271906 1.0 obsgroup
intercept_2_49  0.0854007442898707 1.0 obsgroup
cos_2_49        -0.00040450149093796176 1.0 obsgroup
sin_2_49        0.01652622755271906 1.0 obsgroup
intercept_2_50  0.0854007442898707 1.0 obsgroup
cos_2_50        -0.00040450149093796176 1.0 obsgroup
sin_2_50        0.01652622755271906 1.0 obsgroup
intercept_3_1   0.11672641872023962 1.0 obsgroup
cos_3_1         -0.00846278002832222 1.0 obsgroup
sin_3_1         0.01076062568147726 1.0 obsgroup
intercept_3_2   0.11672641872023962 1.0 obsgroup
cos_3_2         -0.00846278002832222 1.0 obsgroup
sin_3_2         0.01076062568147726 1.0 obsgroup
intercept_3_3   0.11672641872023962 1.0 obsgroup
cos_3_3         -0.00846278002832222 1.0 obsgroup
sin_3_3         0.01076062568147726 1.0 obsgroup
intercept_3_4   0.11672641872023962 1.0 obsgroup
cos_3_4         -0.00846278002832222 1.0 obsgroup
sin_3_4         0.01076062568147726 1.0 obsgroup
intercept_3_5   0.11672641872023962 1.0 obsgroup
cos_3_5         -0.00846278002832222 1.0 obsgroup
sin_3_5         0.01076062568147726 1.0 obsgroup
intercept_3_6   0.11672641872023962 1.0 obsgroup
cos_3_6         -0.00846278002832222 1.0 obsgroup
sin_3_6         0.01076062568147726 1.0 obsgroup
intercept_3_7   0.11672641872023962 1.0 obsgroup
cos_3_7         -0.00846278002832222 1.0 obsgroup
sin_3_7         0.01076062568147726 1.0 obsgroup
intercept_3_8   0.11672641872023962 1.0 obsgroup
cos_3_8         -0.00846278002832222 1.0 obsgroup
sin_3_8         0.01076062568147726 1.0 obsgroup
intercept_3_9   0.11672641872023962 1.0 obsgroup
cos_3_9         -0.00846278002832222 1.0 obsgroup
sin_3_9         0.01076062568147726 1.0 obsgroup
intercept_3_10  0.11672641872023962 1.0 obsgroup
cos_3_10        -0.00846278002832222 1.0 obsgroup
sin_3_10        0.01076062568147726 1.0 obsgroup
intercept_3_11  0.11672641872023962 1.0 obsgroup
cos_3_11        -0.00846278002832222 1.0 obsgroup
sin_3_11        0.01076062568147726 1.0 obsgroup
intercept_3_12  0.11672641872023962 1.0 obsgroup
cos_3_12        -0.00846278002832222 1.0 obsgroup
sin_3_12        0.01076062568147726 1.0 obsgroup
intercept_3_13  0.11672641872023962 1.0 obsgroup
cos_3_13        -0.00846278002832222 1.0 obsgroup
sin_3_13        0.01076062568147726 1.0 obsgroup
intercept_3_14  0.11672641872023962 1.0 obsgroup
cos_3_14        -0.00846278002832222 1.0 obsgroup
sin_3_14        0.01076062568147726 1.0 obsgroup
intercept_3_15  0.11672641872023962 1.0 obsgroup
cos_3_15        -0.00846278002832222 1.0 obsgroup
sin_3_15        0.01076062568147726 1.0 obsgroup
intercept_3_16  0.11672641872023962 1.0 obsgroup
cos_3_16        -0.00846278002832222 1.0 obsgroup
sin_3_16        0.01076062568147726 1.0 obsgroup
intercept_3_17  0.11672641872023962 1.0 obsgroup
cos_3_17        -0.00846278002832222 1.0 obsgroup
sin_3_17        0.01076062568147726 1.0 obsgroup
intercept_3_18  0.11672641872023962 1.0 obsgroup
cos_3_18        -0.00846278002832222 1.0 obsgroup
sin_3_18        0.01076062568147726 1.0 obsgroup
intercept_3_19  0.11672641872023962 1.0 obsgroup
cos_3_19        -0.00846278002832222 1.0 obsgroup
sin_3_19        0.01076062568147726 1.0 obsgroup
intercept_3_20  0.11672641872023962 1.0 obsgroup
cos_3_20        -0.00846278002832222 1.0 obsgroup
sin_3_20        0.01076062568147726 1.0 obsgroup
intercept_3_21  0.11672641872023962 1.0 obsgroup
cos_3_21        -0.00846278002832222 1.0 obsgroup
sin_3_21        0.01076062568147726 1.0 obsgroup
intercept_3_22  0.11672641872023962 1.0 obsgroup
cos_3_22        -0.00846278002832222 1.0 obsgroup
sin_3_22        0.01076062568147726 1.0 obsgroup
intercept_3_23  0.11672641872023962 1.0 obsgroup
cos_3_23        -0.00846278002832222 1.0 obsgroup
sin_3_23        0.01076062568147726 1.0 obsgroup
intercept_3_24  0.11672641872023962 1.0 obsgroup
cos_3_24        -0.00846278002832222 1.0 obsgroup
sin_3_24        0.01076062568147726 1.0 obsgroup
intercept_3_25  0.10962241935327877 1.0 obsgroup
cos_3_25        -0.004221430749137012 1.0 obsgroup
sin_3_25        0.009653433328497461 1.0 obsgroup
intercept_3_26  0.10962241935327877 1.0 obsgroup
cos_3_26        -0.004221430749137012 1.0 obsgroup
sin_3_26        0.009653433328497461 1.0 obsgroup
intercept_3_27  0.10962241935327877 1.0 obsgroup
cos_3_27        -0.004221430749137012 1.0 obsgroup
sin_3_27        0.009653433328497461 1.0 obsgroup
intercept_3_28  0.10962241935327877 1.0 obsgroup
cos_3_28        -0.004221430749137012 1.0 obsgroup
sin_3_28        0.009653433328497461 1.0 obsgroup
intercept_3_29  0.10962241935327877 1.0 obsgroup
cos_3_29        -0.004221430749137012 1.0 obsgroup
sin_3_29        0.009653433328497461 1.0 obsgroup
intercept_3_30  0.10962241935327877 1.0 obsgroup
cos_3_30        -0.004221430749137012 1.0 obsgroup
sin_3_30        0.009653433328497461 1.0 obsgroup
intercept_3_31  0.10962241935327877 1.0 obsgroup
cos_3_31        -0.004221430749137012 1.0 obsgroup
sin_3_31        0.009653433328497461 1.0 obsgroup
intercept_3_32  0.10962241935327877 1.0 obsgroup
cos_3_32        -0.004221430749137012 1.0 obsgroup
sin_3_32        0.009653433328497461 1.0 obsgroup
intercept_3_33  0.10962241935327877 1.0 obsgroup
cos_3_33        -0.004221430749137012 1.0 obsgroup
sin_3_33        0.009653433328497461 1.0 obsgroup
intercept_3_34  0.10962241935327877 1.0 obsgroup
cos_3_34        -0.004221430749137012 1.0 obsgroup
sin_3_34        0.009653433328497461 1.0 obsgroup
intercept_3_35  0.10962241935327877 1.0 obsgroup
cos_3_35        -0.004221430749137012 1.0 obsgroup
sin_3_35        0.009653433328497461 1.0 obsgroup
intercept_3_36  0.10962241935327877 1.0 obsgroup
cos_3_36        -0.004221430749137012 1.0 obsgroup
sin_3_36        0.009653433328497461 1.0 obsgroup
intercept_3_37  0.10962241935327877 1.0 obsgroup
cos_3_37        -0.004221430749137012 1.0 obsgroup
sin_3_37        0.009653433328497461 1.0 obsgroup
intercept_3_38  0.10962241935327877 1.0 obsgroup
cos_3_38        -0.004221430749137012 1.0 obsgroup
sin_3_38        0.009653433328497461 1.0 obsgroup
intercept_3_39  0.10962241935327877 1.0 obsgroup
cos_3_39        -0.004221430749137012 1.0 obsgroup
sin_3_39        0.009653433328497461 1.0 obsgroup
intercept_3_40  0.10962241935327877 1.0 obsgroup
cos_3_40        -0.004221430749137012 1.0 obsgroup
sin_3_40        0.009653433328497461 1.0 obsgroup
intercept_3_41  0.10962241935327877 1.0 obsgroup
cos_3_41        -0.004221430749137012 1.0 obsgroup
sin_3_41        0.009653433328497461 1.0 obsgroup
intercept_3_42  0.10962241935327877 1.0 obsgroup
cos_3_42        -0.004221430749137012 1.0 obsgroup
sin_3_42        0.009653433328497461 1.0 obsgroup
intercept_3_43  0.10962241935327877 1.0 obsgroup
cos_3_43        -0.004221430749137012 1.0 obsgroup
sin_3_43        0.009653433328497461 1.0 obsgroup
intercept_3_44  0.10962241935327877 1.0 obsgroup
cos_3_44        -0.004221430749137012 1.0 obsgroup
sin_3_44        0.009653433328497461 1.0 obsgroup
intercept_3_45  0.10962241935327877 1.0 obsgroup