pcf
* control data
restart estimation
7 1500 7 0 1
1 1 single point
10 2.0 0.3 0.05 10
5.0 5.0 0.001
0.1
50 1e-07 10 4 0.005 10 1e-05
0 0 0 0 nojcosave nojcosaveitn noverboserec noreisaveitn parsaveitn
* singular value decomposition
1
3 1e-06
0
* parameter groups
q1 relative 0.01 0.0 switch 2.0 parabolic
q5 relative 0.01 0.0 switch 2.0 parabolic
q9 relative 0.01 0.0 switch 2.0 parabolic
r relative 0.01 0.0 switch 2.0 parabolic
p1 relative 0.01 0.0 switch 2.0 parabolic
p5 relative 0.01 0.0 switch 2.0 parabolic
p9 relative 0.01 0.0 switch 2.0 parabolic
* parameter data
q1 none relative -9.5e-05 -5 5 q1 1.0 0.0
q5 none relative 0.0018 -5 5 q5 1.0 0.0
q9 none relative 0.0035 -5 5 q9 1.0 0.0
r none relative 0.0013 -5 5 r 1.0 0.0
p1 fixed relative 0.00101 -5 5 p1 1.0 0.0
p5 fixed relative 0.00222 -5 5 p5 1.0 0.0
p9 fixed relative 0.00333 -5 5 p9 1.0 0.0
* observation groups
obsgroup
* observation data
intercept_0_1   0.8843996174028609 1.0 obsgroup
cos_0_1         0.7318696510600546 1.0 obsgroup
sin_0_1         0.12629936620435353 1.0 obsgroup
intercept_0_2   0.8843996174028609 1.0 obsgroup
cos_0_2         0.7318696510600546 1.0 obsgroup
sin_0_2         0.12629936620435353 1.0 obsgroup
intercept_0_3   0.8843996174028609 1.0 obsgroup
cos_0_3         0.7318696510600546 1.0 obsgroup
sin_0_3         0.12629936620435353 1.0 obsgroup
intercept_0_4   0.8843996174028609 1.0 obsgroup
cos_0_4         0.7318696510600546 1.0 obsgroup
sin_0_4         0.12629936620435353 1.0 obsgroup
intercept_0_5   0.8843996174028609 1.0 obsgroup
cos_0_5         0.7318696510600546 1.0 obsgroup
sin_0_5         0.12629936620435353 1.0 obsgroup
intercept_0_6   0.8843996174028609 1.0 obsgroup
cos_0_6         0.7318696510600546 1.0 obsgroup
sin_0_6         0.12629936620435353 1.0 obsgroup
intercept_0_7   0.8843996174028609 1.0 obsgroup
cos_0_7         0.7318696510600546 1.0 obsgroup
sin_0_7         0.12629936620435353 1.0 obsgroup
intercept_0_8   0.8843996174028609 1.0 obsgroup
cos_0_8         0.7318696510600546 1.0 obsgroup
sin_0_8         0.12629936620435353 1.0 obsgroup
intercept_0_9   0.8843996174028609 1.0 obsgroup
cos_0_9         0.7318696510600546 1.0 obsgroup
sin_0_9         0.12629936620435353 1.0 obsgroup
intercept_0_10  0.8843996174028609 1.0 obsgroup
cos_0_10        0.7318696510600546 1.0 obsgroup
sin_0_10        0.12629936620435353 1.0 obsgroup
intercept_0_11  0.8843996174028609 1.0 obsgroup
cos_0_11        0.7318696510600546 1.0 obsgroup
sin_0_11        0.12629936620435353 1.0 obsgroup
intercept_0_12  0.8843996174028609 1.0 obsgroup
cos_0_12        0.7318696510600546 1.0 obsgroup
sin_0_12        0.12629936620435353 1.0 obsgroup
intercept_0_13  0.8843996174028609 1.0 obsgroup
cos_0_13        0.7318696510600546 1.0 obsgroup
sin_0_13        0.12629936620435353 1.0 obsgroup
intercept_0_14  0.8843996174028609 1.0 obsgroup
cos_0_14        0.7318696510600546 1.0 obsgroup
sin_0_14        0.12629936620435353 1.0 obsgroup
intercept_0_15  0.8843996174028609 1.0 obsgroup
cos_0_15        0.7318696510600546 1.0 obsgroup
sin_0_15        0.12629936620435353 1.0 obsgroup
intercept_0_16  0.8843996174028609 1.0 obsgroup
cos_0_16        0.7318696510600546 1.0 obsgroup
sin_0_16        0.12629936620435353 1.0 obsgroup
intercept_0_17  0.8843996174028609 1.0 obsgroup
cos_0_17        0.7318696510600546 1.0 obsgroup
sin_0_17        0.12629936620435353 1.0 obsgroup
intercept_0_18  0.8843996174028609 1.0 obsgroup
cos_0_18        0.7318696510600546 1.0 obsgroup
sin_0_18        0.12629936620435353 1.0 obsgroup
intercept_0_19  0.8843996174028609 1.0 obsgroup
cos_0_19        0.7318696510600546 1.0 obsgroup
sin_0_19        0.12629936620435353 1.0 obsgroup
intercept_0_20  0.8843996174028609 1.0 obsgroup
cos_0_20        0.7318696510600546 1.0 obsgroup
sin_0_20        0.12629936620435353 1.0 obsgroup
intercept_0_21  0.8843996174028609 1.0 obsgroup
cos_0_21        0.7318696510600546 1.0 obsgroup
sin_0_21        0.12629936620435353 1.0 obsgroup
intercept_0_22  0.8843996174028609 1.0 obsgroup
cos_0_22        0.7318696510600546 1.0 obsgroup
sin_0_22        0.12629936620435353 1.0 obsgroup
intercept_0_23  0.8843996174028609 1.0 obsgroup
cos_0_23        0.7318696510600546 1.0 obsgroup
sin_0_23        0.12629936620435353 1.0 obsgroup
intercept_0_24  0.8843996174028609 1.0 obsgroup
cos_0_24        0.7318696510600546 1.0 obsgroup
sin_0_24        0.12629936620435353 1.0 obsgroup
intercept_0_25  0.8843996174028609 1.0 obsgroup
cos_0_25        0.7318696510600546 1.0 obsgroup
sin_0_25        0.12629936620435353 1.0 obsgroup
intercept_0_26  0.3718985672067568 1.0 obsgroup
cos_0_26        -0.012477313925698121 1.0 obsgroup
sin_0_26        0.030268851573782795 1.0 obsgroup
intercept_0_27  0.3718985672067568 1.0 obsgroup
cos_0_27        -0.012477313925698121 1.0 obsgroup
sin_0_27        0.030268851573782795 1.0 obsgroup
intercept_0_28  0.3718985672067568 1.0 obsgroup
cos_0_28        -0.012477313925698121 1.0 obsgroup
sin_0_28        0.030268851573782795 1.0 obsgroup
intercept_0_29  0.3718985672067568 1.0 obsgroup
cos_0_29        -0.012477313925698121 1.0 obsgroup
sin_0_29        0.030268851573782795 1.0 obsgroup
intercept_0_30  0.3718985672067568 1.0 obsgroup
cos_0_30        -0.012477313925698121 1.0 obsgroup
sin_0_30        0.030268851573782795 1.0 obsgroup
intercept_0_31  0.3718985672067568 1.0 obsgroup
cos_0_31        -0.012477313925698121 1.0 obsgroup
sin_0_31        0.030268851573782795 1.0 obsgroup
intercept_0_32  0.3718985672067568 1.0 obsgroup
cos_0_32        -0.012477313925698121 1.0 obsgroup
sin_0_32        0.030268851573782795 1.0 obsgroup
intercept_0_33  0.3718985672067568 1.0 obsgroup
cos_0_33        -0.012477313925698121 1.0 obsgroup
sin_0_33        0.030268851573782795 1.0 obsgroup
intercept_0_34  0.3718985672067568 1.0 obsgroup
cos_0_34        -0.012477313925698121 1.0 obsgroup
sin_0_34        0.030268851573782795 1.0 obsgroup
intercept_0_35  0.3718985672067568 1.0 obsgroup
cos_0_35        -0.012477313925698121 1.0 obsgroup
sin_0_35        0.030268851573782795 1.0 obsgroup
intercept_0_36  0.3718985672067568 1.0 obsgroup
cos_0_36        -0.012477313925698121 1.0 obsgroup
sin_0_36        0.030268851573782795 1.0 obsgroup
intercept_0_37  0.3718985672067568 1.0 obsgroup
cos_0_37        -0.012477313925698121 1.0 obsgroup
sin_0_37        0.030268851573782795 1.0 obsgroup
intercept_0_38  0.3718985672067568 1.0 obsgroup
cos_0_38        -0.012477313925698121 1.0 obsgroup
sin_0_38        0.030268851573782795 1.0 obsgroup
intercept_0_39  0.3718985672067568 1.0 obsgroup
cos_0_39        -0.012477313925698121 1.0 obsgroup
sin_0_39        0.030268851573782795 1.0 obsgroup
intercept_0_40  0.3718985672067568 1.0 obsgroup
cos_0_40        -0.012477313925698121 1.0 obsgroup
sin_0_40        0.030268851573782795 1.0 obsgroup
intercept_0_41  0.3718985672067568 1.0 obsgroup
cos_0_41        -0.012477313925698121 1.0 obsgroup
sin_0_41        0.030268851573782795 1.0 obsgroup
intercept_0_42  0.3718985672067568 1.0 obsgroup
cos_0_42        -0.012477313925698121 1.0 obsgroup
sin_0_42        0.030268851573782795 1.0 obsgroup
intercept_0_43  0.3718985672067568 1.0 obsgroup
cos_0_43        -0.012477313925698121 1.0 obsgroup
sin_0_43        0.030268851573782795 1.0 obsgroup
intercept_0_44  0.3718985672067568 1.0 obsgroup
cos_0_44        -0.012477313925698121 1.0 obsgroup
sin_0_44        0.030268851573782795 1.0 obsgroup
intercept_0_45  0.3718985672067568 1.0 obsgroup
cos_0_45        -0.012477313925698121 1.0 obsgroup
sin_0_45        0.030268851573782795 1.0 obsgroup
intercept_0_46  0.3718985672067568 1.0 obsgroup
cos_0_46        -0.012477313925698121 1.0 obsgroup
sin_0_46        0.030268851573782795 1.0 obsgroup
intercept_0_47  0.3718985672067568 1.0 obsgroup
cos_0_47        -0.012477313925698121 1.0 obsgroup
sin_0_47        0.030268851573782795 1.0 obsgroup
intercept_0_48  0.3718985672067568 1.0 obsgroup
cos_0_48        -0.012477313925698121 1.0 obsgroup
sin_0_48        0.030268851573782795 1.0 obsgroup
intercept_0_49  0.3718985672067568 1.0 obsgroup
cos_0_49        -0.012477313925698121 1.0 obsgroup
sin_0_49        0.030268851573782795 1.0 obsgroup
intercept_0_50  0.3718985672067568 1.0 obsgroup
cos_0_50        -0.012477313925698121 1.0 obsgroup
sin_0_50        0.030268851573782795 1.0 obsgroup
intercept_1_1   -0.12750267122243494 1.0 obsgroup
cos_1_1         -0.38803089891752723 1.0 obsgroup
sin_1_1         -0.02978657822270144 1.0 obsgroup
intercept_1_2   -0.12750267122243494 1.0 obsgroup
cos_1_2         -0.38803089891752723 1.0 obsgroup
sin_1_2         -0.02978657822270144 1.0 obsgroup
intercept_1_3   -0.12750267122243494 1.0 obsgroup
cos_1_3         -0.38803089891752723 1.0 obsgroup
sin_1_3         -0.02978657822270144 1.0 obsgroup
intercept_1_4   -0.12750267122243494 1.0 obsgroup
cos_1_4         -0.38803089891752723 1.0 obsgroup
sin_1_4         -0.02978657822270144 1.0 obsgroup
intercept_1_5   -0.12750267122243494 1.0 obsgroup
cos_1_5         -0.38803089891752723 1.0 obsgroup
sin_1_5         -0.02978657822270144 1.0 obsgroup
intercept_1_6   -0.12750267122243494 1.0 obsgroup
cos_1_6         -0.38803089891752723 1.0 obsgroup
sin_1_6         -0.02978657822270144 1.0 obsgroup
intercept_1_7   -0.12750267122243494 1.0 obsgroup
cos_1_7         -0.38803089891752723 1.0 obsgroup
sin_1_7         -0.02978657822270144 1.0 obsgroup
intercept_1_8   -0.12750267122243494 1.0 obsgroup
cos_1_8         -0.38803089891752723 1.0 obsgroup
sin_1_8         -0.02978657822270144 1.0 obsgroup
intercept_1_9   -0.12750267122243494 1.0 obsgroup
cos_1_9         -0.38803089891752723 1.0 obsgroup
sin_1_9         -0.02978657822270144 1.0 obsgroup
intercept_1_10  -0.12750267122243494 1.0 obsgroup
cos_1_10        -0.38803089891752723 1.0 obsgroup
sin_1_10        -0.02978657822270144 1.0 obsgroup
intercept_1_11  -0.12750267122243494 1.0 obsgroup
cos_1_11        -0.38803089891752723 1.0 obsgroup
sin_1_11        -0.02978657822270144 1.0 obsgroup
intercept_1_12  -0.12750267122243494 1.0 obsgroup
cos_1_12        -0.38803089891752723 1.0 obsgroup
sin_1_12        -0.02978657822270144 1.0 obsgroup
intercept_1_13  -0.12750267122243494 1.0 obsgroup
cos_1_13        -0.38803089891752723 1.0 obsgroup
sin_1_13        -0.02978657822270144 1.0 obsgroup
intercept_1_14  -0.12750267122243494 1.0 obsgroup
cos_1_14        -0.38803089891752723 1.0 obsgroup
sin_1_14        -0.02978657822270144 1.0 obsgroup
intercept_1_15  -0.12750267122243494 1.0 obsgroup
cos_1_15        -0.38803089891752723 1.0 obsgroup
sin_1_15        -0.02978657822270144 1.0 obsgroup
intercept_1_16  -0.12750267122243494 1.0 obsgroup
cos_1_16        -0.38803089891752723 1.0 obsgroup
sin_1_16        -0.02978657822270144 1.0 obsgroup
intercept_1_17  -0.12750267122243494 1.0 obsgroup
cos_1_17        -0.38803089891752723 1.0 obsgroup
sin_1_17        -0.02978657822270144 1.0 obsgroup
intercept_1_18  -0.12750267122243494 1.0 obsgroup
cos_1_18        -0.38803089891752723 1.0 obsgroup
sin_1_18        -0.02978657822270144 1.0 obsgroup
intercept_1_19  -0.12750267122243494 1.0 obsgroup
cos_1_19        -0.38803089891752723 1.0 obsgroup
sin_1_19        -0.02978657822270144 1.0 obsgroup
intercept_1_20  -0.12750267122243494 1.0 obsgroup
cos_1_20        -0.38803089891752723 1.0 obsgroup
sin_1_20        -0.02978657822270144 1.0 obsgroup
intercept_1_21  -0.12750267122243494 1.0 obsgroup
cos_1_21        -0.38803089891752723 1.0 obsgroup
sin_1_21        -0.02978657822270144 1.0 obsgroup
intercept_1_22  -0.12750267122243494 1.0 obsgroup
cos_1_22        -0.38803089891752723 1.0 obsgroup
sin_1_22        -0.02978657822270144 1.0 obsgroup
intercept_1_23  -0.12750267122243494 1.0 obsgroup
cos_1_23        -0.38803089891752723 1.0 obsgroup
sin_1_23        -0.02978657822270144 1.0 obsgroup
intercept_1_24  -0.12750267122243494 1.0 obsgroup
cos_1_24        -0.38803089891752723 1.0 obsgroup
sin_1_24        -0.02978657822270144 1.0 obsgroup
intercept_1_25  -0.12750267122243494 1.0 obsgroup
cos_1_25        -0.38803089891752723 1.0 obsgroup
sin_1_25        -0.02978657822270144 1.0 obsgroup
intercept_1_26  0.21246786484950603 1.0 obsgroup
cos_1_26        -0.012227508379019968 1.0 obsgroup
sin_1_26        0.033069325523670534 1.0 obsgroup
intercept_1_27  0.21246786484950603 1.0 obsgroup
cos_1_27        -0.012227508379019968 1.0 obsgroup
sin_1_27        0.033069325523670534 1.0 obsgroup
intercept_1_28  0.21246786484950603 1.0 obsgroup
cos_1_28        -0.012227508379019968 1.0 obsgroup
sin_1_28        0.033069325523670534 1.0 obsgroup
intercept_1_29  0.21246786484950603 1.0 obsgroup
cos_1_29        -0.012227508379019968 1.0 obsgroup
sin_1_29        0.033069325523670534 1.0 obsgroup
intercept_1_30  0.21246786484950603 1.0 obsgroup
cos_1_30        -0.012227508379019968 1.0 obsgroup
sin_1_30        0.033069325523670534 1.0 obsgroup
intercept_1_31  0.21246786484950603 1.0 obsgroup
cos_1_31        -0.012227508379019968 1.0 obsgroup
sin_1_31        0.033069325523670534 1.0 obsgroup
intercept_1_32  0.21246786484950603 1.0 obsgroup
cos_1_32        -0.012227508379019968 1.0 obsgroup
sin_1_32        0.033069325523670534 1.0 obsgroup
intercept_1_33  0.21246786484950603 1.0 obsgroup
cos_1_33        -0.012227508379019968 1.0 obsgroup
sin_1_33        0.033069325523670534 1.0 obsgroup
intercept_1_34  0.21246786484950603 1.0 obsgroup
cos_1_34        -0.012227508379019968 1.0 obsgroup
sin_1_34        0.033069325523670534 1.0 obsgroup
intercept_1_35  0.21246786484950603 1.0 obsgroup
cos_1_35        -0.012227508379019968 1.0 obsgroup
sin_1_35        0.033069325523670534 1.0 obsgroup
intercept_1_36  0.21246786484950603 1.0 obsgroup
cos_1_36        -0.012227508379019968 1.0 obsgroup
sin_1_36        0.033069325523670534 1.0 obsgroup
intercept_1_37  0.21246786484950603 1.0 obsgroup
cos_1_37        -0.012227508379019968 1.0 obsgroup
sin_1_37        0.033069325523670534 1.0 obsgroup
intercept_1_38  0.21246786484950603 1.0 obsgroup
cos_1_38        -0.012227508379019968 1.0 obsgroup
sin_1_38        0.033069325523670534 1.0 obsgroup
intercept_1_39  0.21246786484950603 1.0 obsgroup
cos_1_39        -0.012227508379019968 1.0 obsgroup
sin_1_39        0.033069325523670534 1.0 obsgroup
intercept_1_40  0.21246786484950603 1.0 obsgroup
cos_1_40        -0.012227508379019968 1.0 obsgroup
sin_1_40        0.033069325523670534 1.0 obsgroup
intercept_1_41  0.21246786484950603 1.0 obsgroup
cos_1_41        -0.012227508379019968 1.0 obsgroup
sin_1_41        0.033069325523670534 1.0 obsgroup
intercept_1_42  0.21246786484950603 1.0 obsgroup
cos_1_42        -0.012227508379019968 1.0 obsgroup
sin_1_42        0.033069325523670534 1.0 obsgroup
intercept_1_43  0.21246786484950603 1.0 obsgroup
cos_1_43        -0.012227508379019968 1.0 obsgroup
sin_1_43        0.033069325523670534 1.0 obsgroup
intercept_1_44  0.21246786484950603 1.0 obsgroup
cos_1_44        -0.012227508379019968 1.0 obsgroup
sin_1_44        0.033069325523670534 1.0 obsgroup
intercept_1_45  0.21246786484950603 1.0 obsgroup
cos_1_45        -0.012227508379019968 1.0 obsgroup
sin_1_45        0.033069325523670534 1.0 obsgroup
intercept_1_46  0.21246786484950603 1.0 obsgroup
cos_1_46        -0.012227508379019968 1.0 obsgroup
sin_1_46        0.033069325523670534 1.0 obsgroup
intercept_1_47  0.21246786484950603 1.0 obsgroup
cos_1_47        -0.012227508379019968 1.0 obsgroup
sin_1_47        0.033069325523670534 1.0 obsgroup
intercept_1_48  0.21246786484950603 1.0 obsgroup
cos_1_48        -0.012227508379019968 1.0 obsgroup
sin_1_48        0.033069325523670534 1.0 obsgroup
intercept_1_49  0.21246786484950603 1.0 obsgroup
cos_1_49        -0.012227508379019968 1.0 obsgroup
sin_1_49        0.033069325523670534 1.0 obsgroup
intercept_1_50  0.21246786484950603 1.0 obsgroup
cos_1_50        -0.012227508379019968 1.0 obsgroup
sin_1_50        0.033069325523670534 1.0 obsgroup
intercept_2_1   0.5709729344932349 1.0 obsgroup
cos_2_1         0.4797024436357378 1.0 obsgroup
sin_2_1         0.12309741980787803 1.0 obsgroup
intercept_2_2   0.5709729344932349 1.0 obsgroup
cos_2_2         0.4797024436357378 1.0 obsgroup
sin_2_2         0.12309741980787803 1.0 obsgroup
intercept_2_3   0.5709729344932349 1.0 obsgroup
cos_2_3         0.4797024436357378 1.0 obsgroup
sin_2_3         0.12309741980787803 1.0 obsgroup
intercept_2_4   0.5709729344932349 1.0 obsgroup
cos_2_4         0.4797024436357378 1.0 obsgroup
sin_2_4         0.12309741980787803 1.0 obsgroup
intercept_2_5   0.5709729344932349 1.0 obsgroup
cos_2_5         0.4797024436357378 1.0 obsgroup
sin_2_5         0.12309741980787803 1.0 obsgroup
intercept_2_6   0.5709729344932349 1.0 obsgroup
cos_2_6         0.4797024436357378 1.0 obsgroup
sin_2_6         0.12309741980787803 1.0 obsgroup
intercept_2_7   0.5709729344932349 1.0 obsgroup
cos_2_7         0.4797024436357378 1.0 obsgroup
sin_2_7         0.12309741980787803 1.0 obsgroup
intercept_2_8   0.5709729344932349 1.0 obsgroup
cos_2_8         0.4797024436357378 1.0 obsgroup
sin_2_8         0.12309741980787803 1.0 obsgroup
intercept_2_9   0.5709729344932349 1.0 obsgroup
cos_2_9         0.4797024436357378 1.0 obsgroup
sin_2_9         0.12309741980787803 1.0 obsgroup
intercept_2_10  0.5709729344932349 1.0 obsgroup
cos_2_10        0.4797024436357378 1.0 obsgroup
sin_2_10        0.12309741980787803 1.0 obsgroup
intercept_2_11  0.5709729344932349 1.0 obsgroup
cos_2_11        0.4797024436357378 1.0 obsgroup
sin_2_11        0.12309741980787803 1.0 obsgroup
intercept_2_12  0.5709729344932349 1.0 obsgroup
cos_2_12        0.4797024436357378 1.0 obsgroup
sin_2_12        0.12309741980787803 1.0 obsgroup
intercept_2_13  0.5709729344932349 1.0 obsgroup
cos_2_13        0.4797024436357378 1.0 obsgroup
sin_2_13        0.12309741980787803 1.0 obsgroup
intercept_2_14  0.5709729344932349 1.0 obsgroup
cos_2_14        0.4797024436357378 1.0 obsgroup
sin_2_14        0.12309741980787803 1.0 obsgroup
intercept_2_15  0.5709729344932349 1.0 obsgroup
cos_2_15        0.4797024436357378 1.0 obsgroup
sin_2_15        0.12309741980787803 1.0 obsgroup
intercept_2_16  0.5709729344932349 1.0 obsgroup
cos_2_16        0.4797024436357378 1.0 obsgroup
sin_2_16        0.12309741980787803 1.0 obsgroup
intercept_2_17  0.5709729344932349 1.0 obsgroup
cos_2_17        0.4797024436357378 1.0 obsgroup
sin_2_17        0.12309741980787803 1.0 obsgroup
intercept_2_18  0.5709729344932349 1.0 obsgroup
cos_2_18        0.4797024436357378 1.0 obsgroup
sin_2_18        0.12309741980787803 1.0 obsgroup
intercept_2_19  0.5709729344932349 1.0 obsgroup
cos_2_19        0.4797024436357378 1.0 obsgroup
sin_2_19        0.12309741980787803 1.0 obsgroup
intercept_2_20  0.5709729344932349 1.0 obsgroup
cos_2_20        0.4797024436357378 1.0 obsgroup
sin_2_20        0.12309741980787803 1.0 obsgroup
intercept_2_21  0.5709729344932349 1.0 obsgroup
cos_2_21        0.4797024436357378 1.0 obsgroup
sin_2_21        0.12309741980787803 1.0 obsgroup
intercept_2_22  0.5709729344932349 1.0 obsgroup
cos_2_22        0.4797024436357378 1.0 obsgroup
sin_2_22        0.12309741980787803 1.0 obsgroup
intercept_2_23  0.5709729344932349 1.0 obsgroup
cos_2_23        0.4797024436357378 1.0 obsgroup
sin_2_23        0.12309741980787803 1.0 obsgroup
intercept_2_24  0.5709729344932349 1.0 obsgroup
cos_2_24        0.4797024436357378 1.0 obsgroup
sin_2_24        0.12309741980787803 1.0 obsgroup
intercept_2_25  0.5709729344932349 1.0 obsgroup
cos_2_25        0.4797024436357378 1.0 obsgroup
sin_2_25        0.12309741980787803 1.0 obsgroup
intercept_2_26  0.35006901258816303 1.0 obsgroup
cos_2_26        0.06417244795271888 1.0 obsgroup
sin_2_26        0.002660965292436882 1.0 obsgroup
intercept_2_27  0.35006901258816303 1.0 obsgroup
cos_2_27        0.06417244795271888 1.0 obsgroup
sin_2_27        0.002660965292436882 1.0 obsgroup
intercept_2_28  0.35006901258816303 1.0 obsgroup
cos_2_28        0.06417244795271888 1.0 obsgroup
sin_2_28        0.002660965292436882 1.0 obsgroup
intercept_2_29  0.35006901258816303 1.0 obsgroup
cos_2_29        0.06417244795271888 1.0 obsgroup
sin_2_29        0.002660965292436882 1.0 obsgroup
intercept_2_30  0.35006901258816303 1.0 obsgroup
cos_2_30        0.06417244795271888 1.0 obsgroup
sin_2_30        0.002660965292436882 1.0 obsgroup
intercept_2_31  0.35006901258816303 1.0 obsgroup
cos_2_31        0.06417244795271888 1.0 obsgroup
sin_2_31        0.002660965292436882 1.0 obsgroup
intercept_2_32  0.35006901258816303 1.0 obsgroup
cos_2_32        0.06417244795271888 1.0 obsgroup
sin_2_32        0.002660965292436882 1.0 obsgroup
intercept_2_33  0.35006901258816303 1.0 obsgroup
cos_2_33        0.06417244795271888 1.0 obsgroup
sin_2_33        0.002660965292436882 1.0 obsgroup
intercept_2_34  0.35006901258816303 1.0 obsgroup
cos_2_34        0.06417244795271888 1.0 obsgroup
sin_2_34        0.002660965292436882 1.0 obsgroup
intercept_2_35  0.35006901258816303 1.0 obsgroup
cos_2_35        0.06417244795271888 1.0 obsgroup
sin_2_35        0.002660965292436882 1.0 obsgroup
intercept_2_36  0.35006901258816303 1.0 obsgroup
cos_2_36        0.06417244795271888 1.0 obsgroup
sin_2_36        0.002660965292436882 1.0 obsgroup
intercept_2_37  0.35006901258816303 1.0 obsgroup
cos_2_37        0.06417244795271888 1.0 obsgroup
sin_2_37        0.002660965292436882 1.0 obsgroup
intercept_2_38  0.35006901258816303 1.0 obsgroup
cos_2_38        0.06417244795271888 1.0 obsgroup
sin_2_38        0.002660965292436882 1.0 obsgroup
intercept_2_39  0.35006901258816303 1.0 obsgroup
cos_2_39        0.06417244795271888 1.0 obsgroup
sin_2_39        0.002660965292436882 1.0 obsgroup
intercept_2_40  0.35006901258816303 1.0 obsgroup
cos_2_40        0.06417244795271888 1.0 obsgroup
sin_2_40        0.002660965292436882 1.0 obsgroup
intercept_2_41  0.35006901258816303 1.0 obsgroup
cos_2_41        0.06417244795271888 1.0 obsgroup
sin_2_41        0.002660965292436882 1.0 obsgroup
intercept_2_42  0.35006901258816303 1.0 obsgroup
cos_2_42        0.06417244795271888 1.0 obsgroup
sin_2_42        0.002660965292436882 1.0 obsgroup
intercept_2_43  0.35006901258816303 1.0 obsgroup
cos_2_43        0.06417244795271888 1.0 obsgroup
sin_2_43        0.002660965292436882 1.0 obsgroup
intercept_2_44  0.35006901258816303 1.0 obsgroup
cos_2_44        0.06417244795271888 1.0 obsgroup
sin_2_44        0.002660965292436882 1.0 obsgroup
intercept_2_45  0.35006901258816303 1.0 obsgroup
cos_2_45        0.06417244795271888 1.0 obsgroup
sin_2_45        0.002660965292436882 1.0 obsgroup
intercept_2_46  0.35006901258816303 1.0 obsgroup
cos_2_46        0.06417244795271888 1.0 obsgroup
sin_2_46        0.002660965292436882 1.0 obsgroup
intercept_2_47  0.35006901258816303 1.0 obsgroup
cos_2_47        0.06417244795271888 1.0 obsgroup
sin_2_47        0.002660965292436882 1.0 obsgroup
intercept_2_48  0.35006901258816303 1.0 obsgroup
cos_2_48        0.06417244795271888 1.0 obsgroup
sin_2_48        0.002660965292436882 1.0 obsgroup
intercept_2_49  0.35006901258816303 1.0 obsgroup
cos_2_49        0.06417244795271888 1.0 obsgroup
sin_2_49        0.002660965292436882 1.0 obsgroup
intercept_2_50  0.35006901258816303 1.0 obsgroup
cos_2_50        0.06417244795271888 1.0 obsgroup
sin_2_50        0.002660965292436882 1.0 obsgroup
intercept_3_1   0.320790643706042 1.0 obsgroup
cos_3_1         -0.002068332644363828 1.0 obsgroup
sin_3_1         0.0416319701060894 1.0 obsgroup
intercept_3_2   0.320790643706042 1.0 obsgroup
cos_3_2         -0.002068332644363828 1.0 obsgroup
sin_3_2         0.0416319701060894 1.0 obsgroup
intercept_3_3   0.320790643706042 1.0 obsgroup
cos_3_3         -0.002068332644363828 1.0 obsgroup
sin_3_3         0.0416319701060894 1.0 obsgroup
intercept_3_4   0.320790643706042 1.0 obsgroup
cos_3_4         -0.002068332644363828 1.0 obsgroup
sin_3_4         0.0416319701060894 1.0 obsgroup
intercept_3_5   0.320790643706042 1.0 obsgroup
cos_3_5         -0.002068332644363828 1.0 obsgroup
sin_3_5         0.0416319701060894 1.0 obsgroup
intercept_3_6   0.320790643706042 1.0 obsgroup
cos_3_6         -0.002068332644363828 1.0 obsgroup
sin_3_6         0.0416319701060894 1.0 obsgroup
intercept_3_7   0.320790643706042 1.0 obsgroup
cos_3_7         -0.002068332644363828 1.0 obsgroup
sin_3_7         0.0416319701060894 1.0 obsgroup
intercept_3_8   0.320790643706042 1.0 obsgroup
cos_3_8         -0.002068332644363828 1.0 obsgroup
sin_3_8         0.0416319701060894 1.0 obsgroup
intercept_3_9   0.320790643706042 1.0 obsgroup
cos_3_9         -0.002068332644363828 1.0 obsgroup
sin_3_9         0.0416319701060894 1.0 obsgroup
intercept_3_10  0.320790643706042 1.0 obsgroup
cos_3_10        -0.002068332644363828 1.0 obsgroup
sin_3_10        0.0416319701060894 1.0 obsgroup
intercept_3_11  0.320790643706042 1.0 obsgroup
cos_3_11        -0.002068332644363828 1.0 obsgroup
sin_3_11        0.0416319701060894 1.0 obsgroup
intercept_3_12  0.320790643706042 1.0 obsgroup
cos_3_12        -0.002068332644363828 1.0 obsgroup
sin_3_12        0.0416319701060894 1.0 obsgroup
intercept_3_13  0.320790643706042 1.0 obsgroup
cos_3_13        -0.002068332644363828 1.0 obsgroup
sin_3_13        0.0416319701060894 1.0 obsgroup
intercept_3_14  0.320790643706042 1.0 obsgroup
cos_3_14        -0.002068332644363828 1.0 obsgroup
sin_3_14        0.0416319701060894 1.0 obsgroup
intercept_3_15  0.320790643706042 1.0 obsgroup
cos_3_15        -0.002068332644363828 1.0 obsgroup
sin_3_15        0.0416319701060894 1.0 obsgroup
intercept_3_16  0.320790643706042 1.0 obsgroup
cos_3_16        -0.002068332644363828 1.0 obsgroup
sin_3_16        0.0416319701060894 1.0 obsgroup
intercept_3_17  0.320790643706042 1.0 obsgroup
cos_3_17        -0.002068332644363828 1.0 obsgroup
sin_3_17        0.0416319701060894 1.0 obsgroup
intercept_3_18  0.320790643706042 1.0 obsgroup
cos_3_18        -0.002068332644363828 1.0 obsgroup
sin_3_18        0.0416319701060894 1.0 obsgroup
intercept_3_19  0.320790643706042 1.0 obsgroup
cos_3_19        -0.002068332644363828 1.0 obsgroup
sin_3_19        0.0416319701060894 1.0 obsgroup
intercept_3_20  0.320790643706042 1.0 obsgroup
cos_3_20        -0.002068332644363828 1.0 obsgroup
sin_3_20        0.0416319701060894 1.0 obsgroup
intercept_3_21  0.320790643706042 1.0 obsgroup
cos_3_21        -0.002068332644363828 1.0 obsgroup
sin_3_21        0.0416319701060894 1.0 obsgroup
intercept_3_22  0.320790643706042 1.0 obsgroup
cos_3_22        -0.002068332644363828 1.0 obsgroup
sin_3_22        0.0416319701060894 1.0 obsgroup
intercept_3_23  0.320790643706042 1.0 obsgroup
cos_3_23        -0.002068332644363828 1.0 obsgroup
sin_3_23        0.0416319701060894 1.0 obsgroup
intercept_3_24  0.320790643706042 1.0 obsgroup
cos_3_24        -0.002068332644363828 1.0 obsgroup
sin_3_24        0.0416319701060894 1.0 obsgroup
intercept_3_25  0.320790643706042 1.0 obsgroup
cos_3_25        -0.002068332644363828 1.0 obsgroup
sin_3_25        0.0416319701060894 1.0 obsgroup
intercept_3_26  0.38081012662913105 1.0 obsgroup
cos_3_26        0.393962656970814 1.0 obsgroup
sin_3_26        0.05561378720793929 1.0 obsgroup
intercept_3_27  0.38081012662913105 1.0 obsgroup
cos_3_27        0.393962656970814 1.0 obsgroup
sin_3_27        0.05561378720793929 1.0 obsgroup
intercept_3_28  0.38081012662913105 1.0 obsgroup
cos_3_28        0.393962656970814 1.0 obsgroup
sin_3_28        0.05561378720793929 1.0 obsgroup
intercept_3_29  0.38081012662913105 1.0 obsgroup
cos_3_29        0.393962656970814 1.0 obsgroup
sin_3_29        0.05561378720793929 1.0 obsgroup
intercept_3_30  0.38081012662913105 1.0 obsgroup
cos_3_30        0.393962656970814 1.0 obsgroup
sin_3_30        0.05561378720793929 1.0 obsgroup
intercept_3_31  0.38081012662913105 1.0 obsgroup
cos_3_31        0.393962656970814 1.0 obsgroup
sin_3_31        0.05561378720793929 1.0 obsgroup
intercept_3_32  0.38081012662913105 1.0 obsgroup
cos_3_32        0.393962656970814 1.0 obsgroup
sin_3_32        0.05561378720793929 1.0 obsgroup
intercept_3_33  0.38081012662913105 1.0 obsgroup
cos_3_33        0.393962656970814 1.0 obsgroup
sin_3_33        0.05561378720793929 1.0 obsgroup
intercept_3_34  0.38081012662913105 1.0 obsgroup
cos_3_34        0.393962656970814 1.0 obsgroup
sin_3_34        0.05561378720793929 1.0 obsgroup
intercept_3_35  0.38081012662913105 1.0 obsgroup
cos_3_35        0.393962656970814 1.0 obsgroup
sin_3_35        0.05561378720793929 1.0 obsgroup
intercept_3_36  0.38081012662913105 1.0 obsgroup
cos_3_36        0.393962656970814 1.0 obsgroup
sin_3_36        0.05561378720793929 1.0 obsgroup
intercept_3_37  0.38081012662913105 1.0 obsgroup
cos_3_37        0.393962656970814 1.0 obsgroup
sin_3_37        0.05561378720793929 1.0 obsgroup
intercept_3_38  0.38081012662913105 1.0 obsgroup
cos_3_38        0.393962656970814 1.0 obsgroup
sin_3_38        0.05561378720793929 1.0 obsgroup
intercept_3_39  0.38081012662913105 1.0 obsgroup
cos_3_39        0.393962656970814 1.0 obsgroup
sin_3_39        0.05561378720793929 1.0 obsgroup
intercept_3_40  0.38081012662913105 1.0 obsgroup
cos_3_40        0.393962656970814 1.0 obsgroup
sin_3_40        0.05561378720793929 1.0 obsgroup
intercept_3_41  0.38081012662913105 1.0 obsgroup
cos_3_41        0.393962656970814 1.0 obsgroup
sin_3_41        0.05561378720793929 1.0 obsgroup
intercept_3_42  0.38081012662913105 1.0 obsgroup
cos_3_42        0.393962656970814 1.0 obsgroup
sin_3_42        0.05561378720793929 1.0 obsgroup
intercept_3_43  0.38081012662913105 1.0 obsgroup
cos_3_43        0.393962656970814 1.0 obsgroup
sin_3_43        0.05561378720793929 1.0 obsgroup
intercept_3_44  0.38081012662913105 1.0 obsgroup
cos_3_44        0.393962656970814 1.0 obsgroup
sin_3_44        0.05561378720793929 1.0 obsgroup
intercept_3_45  0.38081012662913105 1.0 obsgroup
cos_3_45        0.393962656970814 1.0 obsgroup
sin_3_45        0.05561378720793929 1.0 obsgroup
intercept_3_46  0.38081012662913105 1.0 obsgroup
cos_3_46        0.393962656970814 1.0 obsgroup
sin_3_46        0.05561378720793929 1.0 obsgroup
intercept_3_47  0.38081012662913105 1.0 obsgroup
cos_3_47        0.393962656970814 1.0 obsgroup
sin_3_47        0.05561378720793929 1.0 obsgroup
intercept_3_48  0.38081012662913105 1.0 obsgroup