pcf
* control data
restart estimation
7 8000 7 0 1
1 1 single point
10 2.0 0.3 0.05 10
5.0 5.0 0.001
0.1
50 1e-07 10 4 0.005 10 1e-05
0 0 0 0 nojcosave nojcosaveitn noverboserec noreisaveitn parsaveitn
* singular value decomposition
1
3 1e-06
0
* parameter groups
q1 relative 0.01 0.0 switch 2.0 parabolic
q5 relative 0.01 0.0 switch 2.0 parabolic
q9 relative 0.01 0.0 switch 2.0 parabolic
r relative 0.01 0.0 switch 2.0 parabolic
p1 relative 0.01 0.0 switch 2.0 parabolic
p5 relative 0.01 0.0 switch 2.0 parabolic
p9 relative 0.01 0.0 switch 2.0 parabolic
* parameter data
q1 none relative 0.0007 1e-15 1 q1 1.0 0.0
q5 none relative 0.00027 1e-15 1 q5 1.0 0.0
q9 none relative 0.0042 1e-15 1 q9 1.0 0.0
r none relative 0.00125 1e-15 1 r 1.0 0.0
p1 fixed relative 0.00101 -5 5 p1 1.0 0.0
p5 fixed relative 0.00222 -5 5 p5 1.0 0.0
p9 fixed relative 0.00333 -5 5 p9 1.0 0.0
* observation groups
obsgroup
* observation data
intercept_0_1   0.05961897304162915 1.0 obsgroup
cos_0_1         -0.0238156100280952 1.0 obsgroup
sin_0_1         0.004623983431700307 1.0 obsgroup
estimate_0_1    0.0831745339802265 1.0 obsgroup
intercept_0_2   0.05961897304162915 1.0 obsgroup
cos_0_2         -0.0238156100280952 1.0 obsgroup
sin_0_2         0.004623983431700307 1.0 obsgroup
estimate_0_2    0.08374820028773908 1.0 obsgroup
intercept_0_3   0.05961897304162915 1.0 obsgroup
cos_0_3         -0.0238156100280952 1.0 obsgroup
sin_0_3         0.004623983431700307 1.0 obsgroup
estimate_0_3    0.08386428640078475 1.0 obsgroup
intercept_0_4   0.05961897304162915 1.0 obsgroup
cos_0_4         -0.0238156100280952 1.0 obsgroup
sin_0_4         0.004623983431700307 1.0 obsgroup
estimate_0_4    0.08386562848340413 1.0 obsgroup
intercept_0_5   0.05961897304162915 1.0 obsgroup
cos_0_5         -0.0238156100280952 1.0 obsgroup
sin_0_5         0.004623983431700307 1.0 obsgroup
estimate_0_5    0.08375222018402047 1.0 obsgroup
intercept_0_6   0.05961897304162915 1.0 obsgroup
cos_0_6         -0.0238156100280952 1.0 obsgroup
sin_0_6         0.004623983431700307 1.0 obsgroup
estimate_0_6    0.08352459822184054 1.0 obsgroup
intercept_0_7   0.05961897304162915 1.0 obsgroup
cos_0_7         -0.0238156100280952 1.0 obsgroup
sin_0_7         0.004623983431700307 1.0 obsgroup
estimate_0_7    0.08318383984676284 1.0 obsgroup
intercept_0_8   0.05961897304162915 1.0 obsgroup
cos_0_8         -0.0238156100280952 1.0 obsgroup
sin_0_8         0.004623983431700307 1.0 obsgroup
estimate_0_8    0.08273155774115513 1.0 obsgroup
intercept_0_9   0.05961897304162915 1.0 obsgroup
cos_0_9         -0.0238156100280952 1.0 obsgroup
sin_0_9         0.004623983431700307 1.0 obsgroup
estimate_0_9    0.08216989238763041 1.0 obsgroup
intercept_0_10  0.05961897304162915 1.0 obsgroup
cos_0_10        -0.0238156100280952 1.0 obsgroup
sin_0_10        0.004623983431700307 1.0 obsgroup
estimate_0_10   0.08150150193893989 1.0 obsgroup
intercept_0_11  0.05961897304162915 1.0 obsgroup
cos_0_11        -0.0238156100280952 1.0 obsgroup
sin_0_11        0.004623983431700307 1.0 obsgroup
estimate_0_11   0.08072954963792756 1.0 obsgroup
intercept_0_12  0.05961897304162915 1.0 obsgroup
cos_0_12        -0.0238156100280952 1.0 obsgroup
sin_0_12        0.004623983431700307 1.0 obsgroup
estimate_0_12   0.07985768884708057 1.0 obsgroup
intercept_0_13  0.05961897304162915 1.0 obsgroup
cos_0_13        -0.0238156100280952 1.0 obsgroup
sin_0_13        0.004623983431700307 1.0 obsgroup
estimate_0_13   0.07889004575852637 1.0 obsgroup
intercept_0_14  0.05961897304162915 1.0 obsgroup
cos_0_14        -0.0238156100280952 1.0 obsgroup
sin_0_14        0.004623983431700307 1.0 obsgroup
estimate_0_14   0.07783119986630371 1.0 obsgroup
intercept_0_15  0.05961897304162915 1.0 obsgroup
cos_0_15        -0.0238156100280952 1.0 obsgroup
sin_0_15        0.004623983431700307 1.0 obsgroup
estimate_0_15   0.07668616229332421 1.0 obsgroup
intercept_0_16  0.05961897304162915 1.0 obsgroup
cos_0_16        -0.0238156100280952 1.0 obsgroup
sin_0_16        0.004623983431700307 1.0 obsgroup
estimate_0_16   0.07546035207559584 1.0 obsgroup
intercept_0_17  0.05961897304162915 1.0 obsgroup
cos_0_17        -0.0238156100280952 1.0 obsgroup
sin_0_17        0.004623983431700307 1.0 obsgroup
estimate_0_17   0.0741595705159448 1.0 obsgroup
intercept_0_18  0.05961897304162915 1.0 obsgroup
cos_0_18        -0.0238156100280952 1.0 obsgroup
sin_0_18        0.004623983431700307 1.0 obsgroup
estimate_0_18   0.07278997372861268 1.0 obsgroup
intercept_0_19  0.05961897304162915 1.0 obsgroup
cos_0_19        -0.0238156100280952 1.0 obsgroup
sin_0_19        0.004623983431700307 1.0 obsgroup
estimate_0_19   0.07135804350466206 1.0 obsgroup
intercept_0_20  0.05961897304162915 1.0 obsgroup
cos_0_20        -0.0238156100280952 1.0 obsgroup
sin_0_20        0.004623983431700307 1.0 obsgroup
estimate_0_20   0.06987055663607514 1.0 obsgroup
intercept_0_21  0.05961897304162915 1.0 obsgroup
cos_0_21        -0.0238156100280952 1.0 obsgroup
sin_0_21        0.004623983431700307 1.0 obsgroup
estimate_0_21   0.06833455284372429 1.0 obsgroup
intercept_0_22  0.05961897304162915 1.0 obsgroup
cos_0_22        -0.0238156100280952 1.0 obsgroup
sin_0_22        0.004623983431700307 1.0 obsgroup
estimate_0_22   0.06675730146099668 1.0 obsgroup
intercept_0_23  0.05961897304162915 1.0 obsgroup
cos_0_23        -0.0238156100280952 1.0 obsgroup
sin_0_23        0.004623983431700307 1.0 obsgroup
estimate_0_23   0.06514626703074927 1.0 obsgroup
intercept_0_24  0.05961897304162915 1.0 obsgroup
cos_0_24        -0.0238156100280952 1.0 obsgroup
sin_0_24        0.004623983431700307 1.0 obsgroup
estimate_0_24   0.06350907397841009 1.0 obsgroup
intercept_0_25  0.044276026194951884 1.0 obsgroup
cos_0_25        -0.028293863255978127 1.0 obsgroup
sin_0_25        -0.003483636133354953 1.0 obsgroup
estimate_0_25   0.06732426223016029 1.0 obsgroup
intercept_0_26  0.044276026194951884 1.0 obsgroup
cos_0_26        -0.028293863255978127 1.0 obsgroup
sin_0_26        -0.003483636133354953 1.0 obsgroup
estimate_0_26   0.06842317689299605 1.0 obsgroup
intercept_0_27  0.044276026194951884 1.0 obsgroup
cos_0_27        -0.028293863255978127 1.0 obsgroup
sin_0_27        -0.003483636133354953 1.0 obsgroup
estimate_0_27   0.06940781209268934 1.0 obsgroup
intercept_0_28  0.044276026194951884 1.0 obsgroup
cos_0_28        -0.028293863255978127 1.0 obsgroup
sin_0_28        -0.003483636133354953 1.0 obsgroup
estimate_0_28   0.07027350791787337 1.0 obsgroup
intercept_0_29  0.044276026194951884 1.0 obsgroup
cos_0_29        -0.028293863255978127 1.0 obsgroup
sin_0_29        -0.003483636133354953 1.0 obsgroup
estimate_0_29   0.07101616735290525 1.0 obsgroup
intercept_0_30  0.044276026194951884 1.0 obsgroup
cos_0_30        -0.028293863255978127 1.0 obsgroup
sin_0_30        -0.003483636133354953 1.0 obsgroup
estimate_0_30   0.07163227566751297 1.0 obsgroup
intercept_0_31  0.044276026194951884 1.0 obsgroup
cos_0_31        -0.028293863255978127 1.0 obsgroup
sin_0_31        -0.003483636133354953 1.0 obsgroup
estimate_0_31   0.07211891705070478 1.0 obsgroup
intercept_0_32  0.044276026194951884 1.0 obsgroup
cos_0_32        -0.028293863255978127 1.0 obsgroup
sin_0_32        -0.003483636133354953 1.0 obsgroup
estimate_0_32   0.07247378841021475 1.0 obsgroup
intercept_0_33  0.044276026194951884 1.0 obsgroup
cos_0_33        -0.028293863255978127 1.0 obsgroup
sin_0_33        -0.003483636133354953 1.0 obsgroup
estimate_0_33   0.07269521027218052 1.0 obsgroup
intercept_0_34  0.044276026194951884 1.0 obsgroup
cos_0_34        -0.028293863255978127 1.0 obsgroup
sin_0_34        -0.003483636133354953 1.0 obsgroup
estimate_0_34   0.07278213472946676 1.0 obsgroup
intercept_0_35  0.044276026194951884 1.0 obsgroup
cos_0_35        -0.028293863255978127 1.0 obsgroup
sin_0_35        -0.003483636133354953 1.0 obsgroup
estimate_0_35   0.07273415040101917 1.0 obsgroup
intercept_0_36  0.044276026194951884 1.0 obsgroup
cos_0_36        -0.028293863255978127 1.0 obsgroup
sin_0_36        -0.003483636133354953 1.0 obsgroup
estimate_0_36   0.0725514843787776 1.0 obsgroup
intercept_0_37  0.044276026194951884 1.0 obsgroup
cos_0_37        -0.028293863255978127 1.0 obsgroup
sin_0_37        -0.003483636133354953 1.0 obsgroup
estimate_0_37   0.07223500115293466 1.0 obsgroup
intercept_0_38  0.044276026194951884 1.0 obsgroup
cos_0_38        -0.028293863255978127 1.0 obsgroup
sin_0_38        -0.003483636133354953 1.0 obsgroup
estimate_0_38   0.07178619852062562 1.0 obsgroup
intercept_0_39  0.044276026194951884 1.0 obsgroup
cos_0_39        -0.028293863255978127 1.0 obsgroup
sin_0_39        -0.003483636133354953 1.0 obsgroup
estimate_0_39   0.07120720049741326 1.0 obsgroup
intercept_0_40  0.044276026194951884 1.0 obsgroup
cos_0_40        -0.028293863255978127 1.0 obsgroup
sin_0_40        -0.003483636133354953 1.0 obsgroup
estimate_0_40   0.07050074726511359 1.0 obsgroup
intercept_0_41  0.044276026194951884 1.0 obsgroup
cos_0_41        -0.028293863255978127 1.0 obsgroup
sin_0_41        -0.003483636133354953 1.0 obsgroup
estimate_0_41   0.06967018220353702 1.0 obsgroup
intercept_0_42  0.044276026194951884 1.0 obsgroup
cos_0_42        -0.028293863255978127 1.0 obsgroup
sin_0_42        -0.003483636133354953 1.0 obsgroup
estimate_0_42   0.06871943606751792 1.0 obsgroup
intercept_0_43  0.044276026194951884 1.0 obsgroup
cos_0_43        -0.028293863255978127 1.0 obsgroup
sin_0_43        -0.003483636133354953 1.0 obsgroup
estimate_0_43   0.06765300838411713 1.0 obsgroup
intercept_0_44  0.044276026194951884 1.0 obsgroup
cos_0_44        -0.028293863255978127 1.0 obsgroup
sin_0_44        -0.003483636133354953 1.0 obsgroup
estimate_0_44   0.06647594615803791 1.0 obsgroup
intercept_0_45  0.044276026194951884 1.0 obsgroup
cos_0_45        -0.028293863255978127 1.0 obsgroup
sin_0_45        -0.003483636133354953 1.0 obsgroup
estimate_0_45   0.06519381998603338 1.0 obsgroup
intercept_0_46  0.044276026194951884 1.0 obsgroup
cos_0_46        -0.028293863255978127 1.0 obsgroup
sin_0_46        -0.003483636133354953 1.0 obsgroup
estimate_0_46   0.0638126976933495 1.0 obsgroup
intercept_0_47  0.044276026194951884 1.0 obsgroup
cos_0_47        -0.028293863255978127 1.0 obsgroup
sin_0_47        -0.003483636133354953 1.0 obsgroup
estimate_0_47   0.062339115616969 1.0 obsgroup
intercept_0_48  0.044276026194951884 1.0 obsgroup
cos_0_48        -0.028293863255978127 1.0 obsgroup
sin_0_48        -0.003483636133354953 1.0 obsgroup
estimate_0_48   0.06078004767156589 1.0 obsgroup
intercept_0_49  0.044276026194951884 1.0 obsgroup
cos_0_49        -0.028293863255978127 1.0 obsgroup
sin_0_49        -0.003483636133354953 1.0 obsgroup
estimate_0_49   0.059142872344566326 1.0 obsgroup
intercept_0_50  0.044276026194951884 1.0 obsgroup
cos_0_50        -0.028293863255978127 1.0 obsgroup
sin_0_50        -0.003483636133354953 1.0 obsgroup
estimate_0_50   0.0574353377765182 1.0 obsgroup
intercept_1_1   0.11302379141102505 1.0 obsgroup
cos_1_1         -0.03202241604889265 1.0 obsgroup
sin_1_1         0.02722177140954973 1.0 obsgroup
estimate_1_1    0.15351756954333512 1.0 obsgroup
intercept_1_2   0.11302379141102505 1.0 obsgroup
cos_1_2         -0.03202241604889265 1.0 obsgroup
sin_1_2         0.02722177140954973 1.0 obsgroup
estimate_1_2    0.15159052573947576 1.0 obsgroup
intercept_1_3   0.11302379141102505 1.0 obsgroup
cos_1_3         -0.03202241604889265 1.0 obsgroup
sin_1_3         0.02722177140954973 1.0 obsgroup
estimate_1_3    0.1503507190041092 1.0 obsgroup
intercept_1_4   0.11302379141102505 1.0 obsgroup
cos_1_4         -0.03202241604889265 1.0 obsgroup
sin_1_4         0.02722177140954973 1.0 obsgroup
estimate_1_4    0.14893425783446027 1.0 obsgroup
intercept_1_5   0.11302379141102505 1.0 obsgroup
cos_1_5         -0.03202241604889265 1.0 obsgroup
sin_1_5         0.02722177140954973 1.0 obsgroup
estimate_1_5    0.1473478458132438 1.0 obsgroup
intercept_1_6   0.11302379141102505 1.0 obsgroup
cos_1_6         -0.03202241604889265 1.0 obsgroup
sin_1_6         0.02722177140954973 1.0 obsgroup
estimate_1_6    0.1455989908372037 1.0 obsgroup
intercept_1_7   0.11302379141102505 1.0 obsgroup
cos_1_7         -0.03202241604889265 1.0 obsgroup
sin_1_7         0.02722177140954973 1.0 obsgroup
estimate_1_7    0.14369596958503733 1.0 obsgroup
intercept_1_8   0.11302379141102505 1.0 obsgroup
cos_1_8         -0.03202241604889265 1.0 obsgroup
sin_1_8         0.02722177140954973 1.0 obsgroup
estimate_1_8    0.14164778834695885 1.0 obsgroup
intercept_1_9   0.11302379141102505 1.0 obsgroup
cos_1_9         -0.03202241604889265 1.0 obsgroup
sin_1_9         0.02722177140954973 1.0 obsgroup
estimate_1_9    0.13946414040128727 1.0 obsgroup
intercept_1_10  0.11302379141102505 1.0 obsgroup
cos_1_10        -0.03202241604889265 1.0 obsgroup
sin_1_10        0.02722177140954973 1.0 obsgroup
estimate_1_10   0.13715536013977034 1.0 obsgroup
intercept_1_11  0.11302379141102505 1.0 obsgroup
cos_1_11        -0.03202241604889265 1.0 obsgroup
sin_1_11        0.02722177140954973 1.0 obsgroup
estimate_1_11   0.1347323741587633 1.0 obsgroup
intercept_1_12  0.11302379141102505 1.0 obsgroup
cos_1_12        -0.03202241604889265 1.0 obsgroup
sin_1_12        0.02722177140954973 1.0 obsgroup
estimate_1_12   0.13220664954772032 1.0 obsgroup
intercept_1_13  0.11302379141102505 1.0 obsgroup
cos_1_13        -0.03202241604889265 1.0 obsgroup
sin_1_13        0.02722177140954973 1.0 obsgroup
estimate_1_13   0.1295901396197338 1.0 obsgroup
intercept_1_14  0.11302379141102505 1.0 obsgroup
cos_1_14        -0.03202241604889265 1.0 obsgroup
sin_1_14        0.02722177140954973 1.0 obsgroup
estimate_1_14   0.12689522734096076 1.0 obsgroup
intercept_1_15  0.11302379141102505 1.0 obsgroup
cos_1_15        -0.03202241604889265 1.0 obsgroup
sin_1_15        0.02722177140954973 1.0 obsgroup
estimate_1_15   0.124134666726659 1.0 obsgroup
intercept_1_16  0.11302379141102505 1.0 obsgroup
cos_1_16        -0.03202241604889265 1.0 obsgroup
sin_1_16        0.02722177140954973 1.0 obsgroup
estimate_1_16   0.12132152248118748 1.0 obsgroup
intercept_1_17  0.11302379141102505 1.0 obsgroup
cos_1_17        -0.03202241604889265 1.0 obsgroup
sin_1_17        0.02722177140954973 1.0 obsgroup
estimate_1_17   0.11846910816762955 1.0 obsgroup
intercept_1_18  0.11302379141102505 1.0 obsgroup
cos_1_18        -0.03202241604889265 1.0 obsgroup
sin_1_18        0.02722177140954973 1.0 obsgroup
estimate_1_18   0.11559092319966327 1.0 obsgroup
intercept_1_19  0.11302379141102505 1.0 obsgroup
cos_1_19        -0.03202241604889265 1.0 obsgroup
sin_1_19        0.02722177140954973 1.0 obsgroup
estimate_1_19   0.11270058895386777 1.0 obsgroup
intercept_1_20  0.11302379141102505 1.0 obsgroup
cos_1_20        -0.03202241604889265 1.0 obsgroup
sin_1_20        0.02722177140954973 1.0 obsgroup
estimate_1_20   0.1098117843048245 1.0 obsgroup
intercept_1_21  0.11302379141102505 1.0 obsgroup
cos_1_21        -0.03202241604889265 1.0 obsgroup
sin_1_21        0.02722177140954973 1.0 obsgroup
estimate_1_21   0.10693818088810451 1.0 obsgroup
intercept_1_22  0.11302379141102505 1.0 obsgroup
cos_1_22        -0.03202241604889265 1.0 obsgroup
sin_1_22        0.02722177140954973 1.0 obsgroup
estimate_1_22   0.1040933783975124 1.0 obsgroup
intercept_1_23  0.11302379141102505 1.0 obsgroup
cos_1_23        -0.03202241604889265 1.0 obsgroup
sin_1_23        0.02722177140954973 1.0 obsgroup
estimate_1_23   0.10129084022280531 1.0 obsgroup
intercept_1_24  0.11302379141102505 1.0 obsgroup
cos_1_24        -0.03202241604889265 1.0 obsgroup
sin_1_24        0.02722177140954973 1.0 obsgroup
estimate_1_24   0.09854382973248796 1.0 obsgroup
intercept_1_25  0.09540671713432262 1.0 obsgroup
cos_1_25        -0.03982685237490111 1.0 obsgroup
sin_1_25        0.009107575568504436 1.0 obsgroup
estimate_1_25   0.13464925586335677 1.0 obsgroup
intercept_1_26  0.09540671713432262 1.0 obsgroup
cos_1_26        -0.03982685237490111 1.0 obsgroup
sin_1_26        0.009107575568504436 1.0 obsgroup
estimate_1_26   0.13533773566606097 1.0 obsgroup
intercept_1_27  0.09540671713432262 1.0 obsgroup
cos_1_27        -0.03982685237490111 1.0 obsgroup
sin_1_27        0.009107575568504436 1.0 obsgroup
estimate_1_27   0.13583723684277316 1.0 obsgroup
intercept_1_28  0.09540671713432262 1.0 obsgroup
cos_1_28        -0.03982685237490111 1.0 obsgroup
sin_1_28        0.009107575568504436 1.0 obsgroup
estimate_1_28   0.13614539544061838 1.0 obsgroup
intercept_1_29  0.09540671713432262 1.0 obsgroup
cos_1_29        -0.03982685237490111 1.0 obsgroup
sin_1_29        0.009107575568504436 1.0 obsgroup
estimate_1_29   0.13626075305982252 1.0 obsgroup
intercept_1_30  0.09540671713432262 1.0 obsgroup
cos_1_30        -0.03982685237490111 1.0 obsgroup
sin_1_30        0.009107575568504436 1.0 obsgroup
estimate_1_30   0.1361827637557747 1.0 obsgroup
intercept_1_31  0.09540671713432262 1.0 obsgroup
cos_1_31        -0.03982685237490111 1.0 obsgroup
sin_1_31        0.009107575568504436 1.0 obsgroup
estimate_1_31   0.13591179662277958 1.0 obsgroup
intercept_1_32  0.09540671713432262 1.0 obsgroup
cos_1_32        -0.03982685237490111 1.0 obsgroup
sin_1_32        0.009107575568504436 1.0 obsgroup
estimate_1_32   0.13544913404727182 1.0 obsgroup
intercept_1_33  0.09540671713432262 1.0 obsgroup
cos_1_33        -0.03982685237490111 1.0 obsgroup
sin_1_33        0.009107575568504436 1.0 obsgroup
estimate_1_33   0.13479696563875865 1.0 obsgroup
intercept_1_34  0.09540671713432262 1.0 obsgroup
cos_1_34        -0.03982685237490111 1.0 obsgroup
sin_1_34        0.009107575568504436 1.0 obsgroup
estimate_1_34   0.1339583778672148 1.0 obsgroup
intercept_1_35  0.09540671713432262 1.0 obsgroup
cos_1_35        -0.03982685237490111 1.0 obsgroup
sin_1_35        0.009107575568504436 1.0 obsgroup
estimate_1_35   0.13293733945597033 1.0 obsgroup
intercept_1_36  0.09540671713432262 1.0 obsgroup
cos_1_36        -0.03982685237490111 1.0 obsgroup
sin_1_36        0.009107575568504436 1.0 obsgroup
estimate_1_36   0.13173868259922258 1.0 obsgroup
intercept_1_37  0.09540671713432262 1.0 obsgroup
cos_1_37        -0.03982685237490111 1.0 obsgroup
sin_1_37        0.009107575568504436 1.0 obsgroup
estimate_1_37   0.1303680800930624 1.0 obsgroup
intercept_1_38  0.09540671713432262 1.0 obsgroup
cos_1_38        -0.03982685237490111 1.0 obsgroup
sin_1_38        0.009107575568504436 1.0 obsgroup
estimate_1_38   0.12883201848824424 1.0 obsgroup
intercept_1_39  0.09540671713432262 1.0 obsgroup
cos_1_39        -0.03982685237490111 1.0 obsgroup
sin_1_39        0.009107575568504436 1.0 obsgroup
estimate_1_39   0.12713776739176044 1.0 obsgroup
intercept_1_40  0.09540671713432262 1.0 obsgroup
cos_1_40        -0.03982685237490111 1.0 obsgroup
sin_1_40        0.009107575568504436 1.0 obsgroup
estimate_1_40   0.12529334506249995 1.0 obsgroup
intercept_1_41  0.09540671713432262 1.0 obsgroup
cos_1_41        -0.03982685237490111 1.0 obsgroup
sin_1_41        0.009107575568504436 1.0 obsgroup
estimate_1_41   0.12330748046381891 1.0 obsgroup
intercept_1_42  0.09540671713432262 1.0 obsgroup
cos_1_42        -0.03982685237490111 1.0 obsgroup
sin_1_42        0.009107575568504436 1.0 obsgroup
estimate_1_42   0.12118957195261046 1.0 obsgroup
intercept_1_43  0.09540671713432262 1.0 obsgroup
cos_1_43        -0.03982685237490111 1.0 obsgroup
sin_1_43        0.009107575568504436 1.0 obsgroup
estimate_1_43   0.1189496428003848 1.0 obsgroup
intercept_1_44  0.09540671713432262 1.0 obsgroup
cos_1_44        -0.03982685237490111 1.0 obsgroup
sin_1_44        0.009107575568504436 1.0 obsgroup
estimate_1_44   0.1165982937568619 1.0 obsgroup
intercept_1_45  0.09540671713432262 1.0 obsgroup
cos_1_45        -0.03982685237490111 1.0 obsgroup
sin_1_45        0.009107575568504436 1.0 obsgroup
estimate_1_45   0.11414665288057349 1.0 obsgroup
intercept_1_46  0.09540671713432262 1.0 obsgroup
cos_1_46        -0.03982685237490111 1.0 obsgroup
sin_1_46        0.009107575568504436 1.0 obsgroup
estimate_1_46   0.11160632287391191 1.0 obsgroup
intercept_1_47  0.09540671713432262 1.0 obsgroup
cos_1_47        -0.03982685237490111 1.0 obsgroup
sin_1_47        0.009107575568504436 1.0 obsgroup
estimate_1_47   0.1089893261718627 1.0 obsgroup
intercept_1_48  0.09540671713432262 1.0 obsgroup
cos_1_48        -0.03982685237490111 1.0 obsgroup
sin_1_48        0.009107575568504436 1.0 obsgroup
estimate_1_48   0.10630804804430313 1.0 obsgroup
intercept_1_49  0.09540671713432262 1.0 obsgroup
cos_1_49        -0.03982685237490111 1.0 obsgroup
sin_1_49        0.009107575568504436 1.0 obsgroup
estimate_1_49   0.10357517798113552 1.0 obsgroup
intercept_1_50  0.09540671713432262 1.0 obsgroup
cos_1_50        -0.03982685237490111 1.0 obsgroup
sin_1_50        0.009107575568504436 1.0 obsgroup
estimate_1_50   0.10080364963766203 1.0 obsgroup
intercept_2_1   -0.022214302589549716 1.0 obsgroup
cos_2_1         -0.05905217578366507 1.0 obsgroup
sin_2_1         -0.008453154925991635 1.0 obsgroup
estimate_2_1    0.027828030919969743 1.0 obsgroup
intercept_2_2   -0.022214302589549716 1.0 obsgroup
cos_2_2         -0.05905217578366507 1.0 obsgroup
sin_2_2         -0.008453154925991635 1.0 obsgroup
estimate_2_2    0.031809374851830066 1.0 obsgroup
intercept_2_3   -0.022214302589549716 1.0 obsgroup
cos_2_3         -0.05905217578366507 1.0 obsgroup
sin_2_3         -0.008453154925991635 1.0 obsgroup
estimate_2_3    0.03342095443404064 1.0 obsgroup
intercept_2_4   -0.022214302589549716 1.0 obsgroup
cos_2_4         -0.05905217578366507 1.0 obsgroup
sin_2_4         -0.008453154925991635 1.0 obsgroup
estimate_2_4    0.03476923308340187 1.0 obsgroup
intercept_2_5   -0.022214302589549716 1.0 obsgroup
cos_2_5         -0.05905217578366507 1.0 obsgroup
sin_2_5         -0.008453154925991635 1.0 obsgroup
estimate_2_5    0.03584782989965168 1.0 obsgroup
intercept_2_6   -0.022214302589549716 1.0 obsgroup
cos_2_6         -0.05905217578366507 1.0 obsgroup
sin_2_6         -0.008453154925991635 1.0 obsgroup
estimate_2_6    0.03665164028611758 1.0 obsgroup
intercept_2_7   -0.022214302589549716 1.0 obsgroup
cos_2_7         -0.05905217578366507 1.0 obsgroup
sin_2_7         -0.008453154925991635 1.0 obsgroup
estimate_2_7    0.03717686010786929 1.0 obsgroup
intercept_2_8   -0.022214302589549716 1.0 obsgroup
cos_2_8         -0.05905217578366507 1.0 obsgroup
sin_2_8         -0.008453154925991635 1.0 obsgroup
estimate_2_8    0.03742100369527193 1.0 obsgroup
intercept_2_9   -0.022214302589549716 1.0 obsgroup
cos_2_9         -0.05905217578366507 1.0 obsgroup
sin_2_9         -0.008453154925991635 1.0 obsgroup
estimate_2_9    0.037382915607733394 1.0 obsgroup
intercept_2_10  -0.022214302589549716 1.0 obsgroup
cos_2_10        -0.05905217578366507 1.0 obsgroup
sin_2_10        -0.008453154925991635 1.0 obsgroup
estimate_2_10   0.037062776101974296 1.0 obsgroup
intercept_2_11  -0.022214302589549716 1.0 obsgroup
cos_2_11        -0.05905217578366507 1.0 obsgroup
sin_2_11        -0.008453154925991635 1.0 obsgroup
estimate_2_11   0.0364621002789399 1.0 obsgroup
intercept_2_12  -0.022214302589549716 1.0 obsgroup
cos_2_12        -0.05905217578366507 1.0 obsgroup
sin_2_12        -0.008453154925991635 1.0 obsgroup
estimate_2_12   0.03558373091339234 1.0 obsgroup
intercept_2_13  -0.022214302589549716 1.0 obsgroup
cos_2_13        -0.05905217578366507 1.0 obsgroup
sin_2_13        -0.008453154925991635 1.0 obsgroup
estimate_2_13   0.0344318250001169 1.0 obsgroup
intercept_2_14  -0.022214302589549716 1.0 obsgroup
cos_2_14        -0.05905217578366507 1.0 obsgroup
sin_2_14        -0.008453154925991635 1.0 obsgroup
estimate_2_14   0.0330118340804158 1.0 obsgroup
intercept_2_15  -0.022214302589549716 1.0 obsgroup
cos_2_15        -0.05905217578366507 1.0 obsgroup
sin_2_15        -0.008453154925991635 1.0 obsgroup
estimate_2_15   0.03133047844199504 1.0 obsgroup
intercept_2_16  -0.022214302589549716 1.0 obsgroup
cos_2_16        -0.05905217578366507 1.0 obsgroup
sin_2_16        -0.008453154925991635 1.0 obsgroup
estimate_2_16   0.02939571531434797 1.0 obsgroup
intercept_2_17  -0.022214302589549716 1.0 obsgroup
cos_2_17        -0.05905217578366507 1.0 obsgroup
sin_2_17        -0.008453154925991635 1.0 obsgroup
estimate_2_17   0.0272167012101535 1.0 obsgroup
intercept_2_18  -0.022214302589549716 1.0 obsgroup
cos_2_18        -0.05905217578366507 1.0 obsgroup
sin_2_18        -0.008453154925991635 1.0 obsgroup
estimate_2_18   0.024803748590915917 1.0 obsgroup
intercept_2_19  -0.022214302589549716 1.0 obsgroup
cos_2_19        -0.05905217578366507 1.0 obsgroup
sin_2_19        -0.008453154925991635 1.0 obsgroup
estimate_2_19   0.022168277061928175 1.0 obsgroup
intercept_2_20  -0.022214302589549716 1.0 obsgroup
cos_2_20        -0.05905217578366507 1.0 obsgroup
sin_2_20        -0.008453154925991635 1.0 obsgroup
estimate_2_20   0.01932275932753593 1.0 obsgroup
intercept_2_21  -0.022214302589549716 1.0 obsgroup
cos_2_21        -0.05905217578366507 1.0 obsgroup
sin_2_21        -0.008453154925991635 1.0 obsgroup
estimate_2_21   0.01628066216247886 1.0 obsgroup
intercept_2_22  -0.022214302589549716 1.0 obsgroup
cos_2_22        -0.05905217578366507 1.0 obsgroup
sin_2_22        -0.008453154925991635 1.0 obsgroup
estimate_2_22   0.013056382678664553 1.0 obsgroup
intercept_2_23  -0.022214302589549716 1.0 obsgroup
cos_2_23        -0.05905217578366507 1.0 obsgroup
sin_2_23        -0.008453154925991635 1.0 obsgroup
estimate_2_23   0.009665180189004901 1.0 obsgroup
intercept_2_24  -0.022214302589549716 1.0 obsgroup
cos_2_24        -0.05905217578366507 1.0 obsgroup
sin_2_24        -0.008453154925991635 1.0 obsgroup
estimate_2_24   0.006123103990776459 1.0 obsgroup
intercept_2_25  0.0413412961047265 1.0 obsgroup
cos_2_25        0.029367921791167182 1.0 obsgroup
sin_2_25        0.016562609655288642 1.0 obsgroup
estimate_2_25   0.023701063977406803 1.0 obsgroup
intercept_2_26  0.0413412961047265 1.0 obsgroup
cos_2_26        0.029367921791167182 1.0 obsgroup
sin_2_26        0.016562609655288642 1.0 obsgroup
estimate_2_26   0.0217672772847832 1.0 obsgroup
intercept_2_27  0.0413412961047265 1.0 obsgroup
cos_2_27        0.029367921791167182 1.0 obsgroup
sin_2_27        0.016562609655288642 1.0 obsgroup
estimate_2_27   0.019926127126807334 1.0 obsgroup
intercept_2_28  0.0413412961047265 1.0 obsgroup
cos_2_28        0.029367921791167182 1.0 obsgroup
sin_2_28        0.016562609655288642 1.0 obsgroup
estimate_2_28   0.018186326980868462 1.0 obsgroup
intercept_2_29  0.0413412961047265 1.0 obsgroup
cos_2_29        0.029367921791167182 1.0 obsgroup
sin_2_29        0.016562609655288642 1.0 obsgroup
estimate_2_29   0.016556110672527484 1.0 obsgroup
intercept_2_30  0.0413412961047265 1.0 obsgroup
cos_2_30        0.029367921791167182 1.0 obsgroup
sin_2_30        0.016562609655288642 1.0 obsgroup
estimate_2_30   0.015043193407891701 1.0 obsgroup
intercept_2_31  0.0413412961047265 1.0 obsgroup
cos_2_31        0.029367921791167182 1.0 obsgroup
sin_2_31        0.016562609655288642 1.0 obsgroup
estimate_2_31   0.013654735260417883 1.0 obsgroup
intercept_2_32  0.0413412961047265 1.0 obsgroup
cos_2_32        0.029367921791167182 1.0 obsgroup
sin_2_32        0.016562609655288642 1.0 obsgroup
estimate_2_32   0.01239730728495554 1.0 obsgroup
intercept_2_33  0.0413412961047265 1.0 obsgroup
cos_2_33        0.029367921791167182 1.0 obsgroup
sin_2_33        0.016562609655288642 1.0 obsgroup
estimate_2_33   0.011276860419392404 1.0 obsgroup
intercept_2_34  0.0413412961047265 1.0 obsgroup
cos_2_34        0.029367921791167182 1.0 obsgroup
sin_2_34        0.016562609655288642 1.0 obsgroup
estimate_2_34   0.01029869732108464 1.0 obsgroup
intercept_2_35  0.0413412961047265 1.0 obsgroup
cos_2_35        0.029367921791167182 1.0 obsgroup
sin_2_35        0.016562609655288642 1.0 obsgroup
estimate_2_35   0.009467447271355678 1.0 obsgroup
intercept_2_36  0.0413412961047265 1.0 obsgroup
cos_2_36        0.029367921791167182 1.0 obsgroup
sin_2_36        0.016562609655288642 1.0 obsgroup
estimate_2_36   0.008787044266833442 1.0 obsgroup
intercept_2_37  0.0413412961047265 1.0 obsgroup
cos_2_37        0.029367921791167182 1.0 obsgroup
sin_2_37        0.016562609655288642 1.0 obsgroup
estimate_2_37   0.008260708401310813 1.0 obsgroup
intercept_2_38  0.0413412961047265 1.0 obsgroup
cos_2_38        0.029367921791167182 1.0 obsgroup
sin_2_38        0.016562609655288642 1.0 obsgroup
estimate_2_38   0.007890930626241814 1.0 obsgroup
intercept_2_39  0.0413412961047265 1.0 obsgroup
cos_2_39        0.029367921791167182 1.0 obsgroup
sin_2_39        0.016562609655288642 1.0 obsgroup
estimate_2_39   0.007679460961997264 1.0 obsgroup
intercept_2_40  0.0413412961047265 1.0 obsgroup
cos_2_40        0.029367921791167182 1.0 obsgroup
sin_2_40        0.016562609655288642 1.0 obsgroup
estimate_2_40   0.007627300215670386 1.0 obsgroup
intercept_2_41  0.0413412961047265 1.0 obsgroup
cos_2_41        0.029367921791167182 1.0 obsgroup
sin_2_41        0.016562609655288642 1.0 obsgroup
estimate_2_41   0.00773469524463009 1.0 obsgroup
intercept_2_42  0.0413412961047265 1.0 obsgroup
cos_2_42        0.029367921791167182 1.0 obsgroup
sin_2_42        0.016562609655288642 1.0 obsgroup
estimate_2_42   0.008001137788236972 1.0 obsgroup
intercept_2_43  0.0413412961047265 1.0 obsgroup
cos_2_43        0.029367921791167182 1.0 obsgroup
sin_2_43        0.016562609655288642 1.0 obsgroup
estimate_2_43   0.008425366873251478 1.0 obsgroup
intercept_2_44  0.0413412961047265 1.0 obsgroup
cos_2_44        0.029367921791167182 1.0 obsgroup
sin_2_44        0.016562609655288642 1.0 obsgroup
estimate_2_44   0.009005374781550139 1.0 obsgroup
intercept_2_45  0.0413412961047265 1.0 obsgroup
cos_2_45        0.029367921791167182 1.0 obsgroup
sin_2_45        0.016562609655288642 1.0 obsgroup
estimate_2_45   0.009738416551907311 1.0 obsgroup
intercept_2_46  0.0413412961047265 1.0 obsgroup
cos_2_46        0.029367921791167182 1.0 obsgroup
sin_2_46        0.016562609655288642 1.0 obsgroup
estimate_2_46   0.010621022970872992 1.0 obsgroup
intercept_2_47  0.0413412961047265 1.0 obsgroup