pcf
* control data
restart estimation
7 900 7 0 1
1 1 single point
10 2.0 0.1 0.001 10
5.0 5.0 5
0.1
50 0.005 4 10 0.005 10 1e-05
0 0 0 0 nojcosave nojcosaveitn noverboserec noreisaveitn parsaveitn
* singular value decomposition
1
3 1e-06
0
* parameter groups
q1 relative 0.01 0.0 switch 2.0 parabolic
q5 relative 0.01 0.0 switch 2.0 parabolic
q9 relative 0.01 0.0 switch 2.0 parabolic
r relative 0.01 0.0 switch 2.0 parabolic
p1 relative 0.01 0.0 switch 2.0 parabolic
p5 relative 0.01 0.0 switch 2.0 parabolic
p9 relative 0.01 0.0 switch 2.0 parabolic
* parameter data
q1 none relative 0.00125 -5 5 q1 1.0 0.0
q5 none relative 0.000125 -5 5 q5 1.0 0.0
q9 none relative 0.000125 -5 5 q9 1.0 0.0
r none relative 0.003 -5 5 r 1.0 0.0
p1 fixed relative 0.00101 -5 5 p1 1.0 0.0
p5 fixed relative 0.00222 -5 5 p5 1.0 0.0
p9 fixed relative 0.00333 -5 5 p9 1.0 0.0
* observation groups
obsgroup
* observation data
intercept_0_1   832851283472599.0 1.0 obsgroup
cos_0_1         0.0044253330140884 1.0 obsgroup
sin_0_1         0.0100258375064592 1.0 obsgroup
intercept_0_2   832851283472599.0 1.0 obsgroup
cos_0_2         0.0044253330140884 1.0 obsgroup
sin_0_2         0.0100258375064592 1.0 obsgroup
intercept_0_3   832851283472599.0 1.0 obsgroup
cos_0_3         0.0044253330140884 1.0 obsgroup
sin_0_3         0.0100258375064592 1.0 obsgroup
intercept_0_4   832851283472599.0 1.0 obsgroup
cos_0_4         0.0044253330140884 1.0 obsgroup
sin_0_4         0.0100258375064592 1.0 obsgroup
intercept_0_5   832851283472599.0 1.0 obsgroup
cos_0_5         0.0044253330140884 1.0 obsgroup
sin_0_5         0.0100258375064592 1.0 obsgroup
intercept_0_6   832851283472599.0 1.0 obsgroup
cos_0_6         0.0044253330140884 1.0 obsgroup
sin_0_6         0.0100258375064592 1.0 obsgroup
intercept_0_7   832851283472599.0 1.0 obsgroup
cos_0_7         0.0044253330140884 1.0 obsgroup
sin_0_7         0.0100258375064592 1.0 obsgroup
intercept_0_8   832851283472599.0 1.0 obsgroup
cos_0_8         0.0044253330140884 1.0 obsgroup
sin_0_8         0.0100258375064592 1.0 obsgroup
intercept_0_9   832851283472599.0 1.0 obsgroup
cos_0_9         0.0044253330140884 1.0 obsgroup
sin_0_9         0.0100258375064592 1.0 obsgroup
intercept_0_10  832851283472599.0 1.0 obsgroup
cos_0_10        0.0044253330140884 1.0 obsgroup
sin_0_10        0.0100258375064592 1.0 obsgroup
intercept_0_11  832851283472599.0 1.0 obsgroup
cos_0_11        0.0044253330140884 1.0 obsgroup
sin_0_11        0.0100258375064592 1.0 obsgroup
intercept_0_12  832851283472599.0 1.0 obsgroup
cos_0_12        0.0044253330140884 1.0 obsgroup
sin_0_12        0.0100258375064592 1.0 obsgroup
intercept_0_13  832851283472599.0 1.0 obsgroup
cos_0_13        0.0044253330140884 1.0 obsgroup
sin_0_13        0.0100258375064592 1.0 obsgroup
intercept_0_14  832851283472599.0 1.0 obsgroup
cos_0_14        0.0044253330140884 1.0 obsgroup
sin_0_14        0.0100258375064592 1.0 obsgroup
intercept_0_15  832851283472599.0 1.0 obsgroup
cos_0_15        0.0044253330140884 1.0 obsgroup
sin_0_15        0.0100258375064592 1.0 obsgroup
intercept_0_16  832851283472599.0 1.0 obsgroup
cos_0_16        0.0044253330140884 1.0 obsgroup
sin_0_16        0.0100258375064592 1.0 obsgroup
intercept_0_17  832851283472599.0 1.0 obsgroup
cos_0_17        0.0044253330140884 1.0 obsgroup
sin_0_17        0.0100258375064592 1.0 obsgroup
intercept_0_18  832851283472599.0 1.0 obsgroup
cos_0_18        0.0044253330140884 1.0 obsgroup
sin_0_18        0.0100258375064592 1.0 obsgroup
intercept_0_19  832851283472599.0 1.0 obsgroup
cos_0_19        0.0044253330140884 1.0 obsgroup
sin_0_19        0.0100258375064592 1.0 obsgroup
intercept_0_20  832851283472599.0 1.0 obsgroup
cos_0_20        0.0044253330140884 1.0 obsgroup
sin_0_20        0.0100258375064592 1.0 obsgroup
intercept_0_21  832851283472599.0 1.0 obsgroup
cos_0_21        0.0044253330140884 1.0 obsgroup
sin_0_21        0.0100258375064592 1.0 obsgroup
intercept_0_22  832851283472599.0 1.0 obsgroup
cos_0_22        0.0044253330140884 1.0 obsgroup
sin_0_22        0.0100258375064592 1.0 obsgroup
intercept_0_23  832851283472599.0 1.0 obsgroup
cos_0_23        0.0044253330140884 1.0 obsgroup
sin_0_23        0.0100258375064592 1.0 obsgroup
intercept_0_24  832851283472599.0 1.0 obsgroup
cos_0_24        0.0044253330140884 1.0 obsgroup
sin_0_24        0.0100258375064592 1.0 obsgroup
intercept_0_25  832851283472599.0 1.0 obsgroup
cos_0_25        0.0044253330140884 1.0 obsgroup
sin_0_25        0.0100258375064592 1.0 obsgroup
intercept_0_26  0.0870711174042913 1.0 obsgroup
cos_0_26        0.0078845453663685 1.0 obsgroup
sin_0_26        0.0138847770751791 1.0 obsgroup
intercept_0_27  0.0870711174042913 1.0 obsgroup
cos_0_27        0.0078845453663685 1.0 obsgroup
sin_0_27        0.0138847770751791 1.0 obsgroup
intercept_0_28  0.0870711174042913 1.0 obsgroup
cos_0_28        0.0078845453663685 1.0 obsgroup
sin_0_28        0.0138847770751791 1.0 obsgroup
intercept_0_29  0.0870711174042913 1.0 obsgroup
cos_0_29        0.0078845453663685 1.0 obsgroup
sin_0_29        0.0138847770751791 1.0 obsgroup
intercept_0_30  0.0870711174042913 1.0 obsgroup
cos_0_30        0.0078845453663685 1.0 obsgroup
sin_0_30        0.0138847770751791 1.0 obsgroup
intercept_0_31  0.0870711174042913 1.0 obsgroup
cos_0_31        0.0078845453663685 1.0 obsgroup
sin_0_31        0.0138847770751791 1.0 obsgroup
intercept_0_32  0.0870711174042913 1.0 obsgroup
cos_0_32        0.0078845453663685 1.0 obsgroup
sin_0_32        0.0138847770751791 1.0 obsgroup
intercept_0_33  0.0870711174042913 1.0 obsgroup
cos_0_33        0.0078845453663685 1.0 obsgroup
sin_0_33        0.0138847770751791 1.0 obsgroup
intercept_0_34  0.0870711174042913 1.0 obsgroup
cos_0_34        0.0078845453663685 1.0 obsgroup
sin_0_34        0.0138847770751791 1.0 obsgroup
intercept_0_35  0.0870711174042913 1.0 obsgroup
cos_0_35        0.0078845453663685 1.0 obsgroup
sin_0_35        0.0138847770751791 1.0 obsgroup
intercept_0_36  0.0870711174042913 1.0 obsgroup
cos_0_36        0.0078845453663685 1.0 obsgroup
sin_0_36        0.0138847770751791 1.0 obsgroup
intercept_0_37  0.0870711174042913 1.0 obsgroup
cos_0_37        0.0078845453663685 1.0 obsgroup
sin_0_37        0.0138847770751791 1.0 obsgroup
intercept_0_38  0.0870711174042913 1.0 obsgroup
cos_0_38        0.0078845453663685 1.0 obsgroup
sin_0_38        0.0138847770751791 1.0 obsgroup
intercept_0_39  0.0870711174042913 1.0 obsgroup
cos_0_39        0.0078845453663685 1.0 obsgroup
sin_0_39        0.0138847770751791 1.0 obsgroup
intercept_0_40  0.0870711174042913 1.0 obsgroup
cos_0_40        0.0078845453663685 1.0 obsgroup
sin_0_40        0.0138847770751791 1.0 obsgroup
intercept_0_41  0.0870711174042913 1.0 obsgroup
cos_0_41        0.0078845453663685 1.0 obsgroup
sin_0_41        0.0138847770751791 1.0 obsgroup
intercept_0_42  0.0870711174042913 1.0 obsgroup
cos_0_42        0.0078845453663685 1.0 obsgroup
sin_0_42        0.0138847770751791 1.0 obsgroup
intercept_0_43  0.0870711174042913 1.0 obsgroup
cos_0_43        0.0078845453663685 1.0 obsgroup
sin_0_43        0.0138847770751791 1.0 obsgroup
intercept_0_44  0.0870711174042913 1.0 obsgroup
cos_0_44        0.0078845453663685 1.0 obsgroup
sin_0_44        0.0138847770751791 1.0 obsgroup
intercept_0_45  0.0870711174042913 1.0 obsgroup
cos_0_45        0.0078845453663685 1.0 obsgroup
sin_0_45        0.0138847770751791 1.0 obsgroup
intercept_0_46  0.0870711174042913 1.0 obsgroup
cos_0_46        0.0078845453663685 1.0 obsgroup
sin_0_46        0.0138847770751791 1.0 obsgroup
intercept_0_47  0.0870711174042913 1.0 obsgroup
cos_0_47        0.0078845453663685 1.0 obsgroup
sin_0_47        0.0138847770751791 1.0 obsgroup
intercept_0_48  0.0870711174042913 1.0 obsgroup
cos_0_48        0.0078845453663685 1.0 obsgroup
sin_0_48        0.0138847770751791 1.0 obsgroup
intercept_0_49  0.0870711174042913 1.0 obsgroup
cos_0_49        0.0078845453663685 1.0 obsgroup
sin_0_49        0.0138847770751791 1.0 obsgroup
intercept_0_50  0.0870711174042913 1.0 obsgroup
cos_0_50        0.0078845453663685 1.0 obsgroup
sin_0_50        0.0138847770751791 1.0 obsgroup
intercept_1_1   0.1205964950601846 1.0 obsgroup
cos_1_1         -0.0238792790987946 1.0 obsgroup
sin_1_1         0.0026450333393404 1.0 obsgroup
intercept_1_2   0.1205964950601846 1.0 obsgroup
cos_1_2         -0.0238792790987946 1.0 obsgroup
sin_1_2         0.0026450333393404 1.0 obsgroup
intercept_1_3   0.1205964950601846 1.0 obsgroup
cos_1_3         -0.0238792790987946 1.0 obsgroup
sin_1_3         0.0026450333393404 1.0 obsgroup
intercept_1_4   0.1205964950601846 1.0 obsgroup
cos_1_4         -0.0238792790987946 1.0 obsgroup
sin_1_4         0.0026450333393404 1.0 obsgroup
intercept_1_5   0.1205964950601846 1.0 obsgroup
cos_1_5         -0.0238792790987946 1.0 obsgroup
sin_1_5         0.0026450333393404 1.0 obsgroup
intercept_1_6   0.1205964950601846 1.0 obsgroup
cos_1_6         -0.0238792790987946 1.0 obsgroup
sin_1_6         0.0026450333393404 1.0 obsgroup
intercept_1_7   0.1205964950601846 1.0 obsgroup
cos_1_7         -0.0238792790987946 1.0 obsgroup
sin_1_7         0.0026450333393404 1.0 obsgroup
intercept_1_8   0.1205964950601846 1.0 obsgroup
cos_1_8         -0.0238792790987946 1.0 obsgroup
sin_1_8         0.0026450333393404 1.0 obsgroup
intercept_1_9   0.1205964950601846 1.0 obsgroup
cos_1_9         -0.0238792790987946 1.0 obsgroup
sin_1_9         0.0026450333393404 1.0 obsgroup
intercept_1_10  0.1205964950601846 1.0 obsgroup
cos_1_10        -0.0238792790987946 1.0 obsgroup
sin_1_10        0.0026450333393404 1.0 obsgroup
intercept_1_11  0.1205964950601846 1.0 obsgroup
cos_1_11        -0.0238792790987946 1.0 obsgroup
sin_1_11        0.0026450333393404 1.0 obsgroup
intercept_1_12  0.1205964950601846 1.0 obsgroup
cos_1_12        -0.0238792790987946 1.0 obsgroup
sin_1_12        0.0026450333393404 1.0 obsgroup
intercept_1_13  0.1205964950601846 1.0 obsgroup
cos_1_13        -0.0238792790987946 1.0 obsgroup
sin_1_13        0.0026450333393404 1.0 obsgroup
intercept_1_14  0.1205964950601846 1.0 obsgroup
cos_1_14        -0.0238792790987946 1.0 obsgroup
sin_1_14        0.0026450333393404 1.0 obsgroup
intercept_1_15  0.1205964950601846 1.0 obsgroup
cos_1_15        -0.0238792790987946 1.0 obsgroup
sin_1_15        0.0026450333393404 1.0 obsgroup
intercept_1_16  0.1205964950601846 1.0 obsgroup
cos_1_16        -0.0238792790987946 1.0 obsgroup
sin_1_16        0.0026450333393404 1.0 obsgroup
intercept_1_17  0.1205964950601846 1.0 obsgroup
cos_1_17        -0.0238792790987946 1.0 obsgroup
sin_1_17        0.0026450333393404 1.0 obsgroup
intercept_1_18  0.1205964950601846 1.0 obsgroup
cos_1_18        -0.0238792790987946 1.0 obsgroup
sin_1_18        0.0026450333393404 1.0 obsgroup
intercept_1_19  0.1205964950601846 1.0 obsgroup
cos_1_19        -0.0238792790987946 1.0 obsgroup
sin_1_19        0.0026450333393404 1.0 obsgroup
intercept_1_20  0.1205964950601846 1.0 obsgroup
cos_1_20        -0.0238792790987946 1.0 obsgroup
sin_1_20        0.0026450333393404 1.0 obsgroup
intercept_1_21  0.1205964950601846 1.0 obsgroup
cos_1_21        -0.0238792790987946 1.0 obsgroup
sin_1_21        0.0026450333393404 1.0 obsgroup
intercept_1_22  0.1205964950601846 1.0 obsgroup
cos_1_22        -0.0238792790987946 1.0 obsgroup
sin_1_22        0.0026450333393404 1.0 obsgroup
intercept_1_23  0.1205964950601846 1.0 obsgroup
cos_1_23        -0.0238792790987946 1.0 obsgroup
sin_1_23        0.0026450333393404 1.0 obsgroup
intercept_1_24  0.1205964950601846 1.0 obsgroup
cos_1_24        -0.0238792790987946 1.0 obsgroup
sin_1_24        0.0026450333393404 1.0 obsgroup
intercept_1_25  0.1205964950601846 1.0 obsgroup
cos_1_25        -0.0238792790987946 1.0 obsgroup
sin_1_25        0.0026450333393404 1.0 obsgroup
intercept_1_26  -0.0127842308989558 1.0 obsgroup
cos_1_26        -0.1510458109909955 1.0 obsgroup
sin_1_26        -0.0960950233785839 1.0 obsgroup
intercept_1_27  -0.0127842308989558 1.0 obsgroup
cos_1_27        -0.1510458109909955 1.0 obsgroup
sin_1_27        -0.0960950233785839 1.0 obsgroup
intercept_1_28  -0.0127842308989558 1.0 obsgroup
cos_1_28        -0.1510458109909955 1.0 obsgroup
sin_1_28        -0.0960950233785839 1.0 obsgroup
intercept_1_29  -0.0127842308989558 1.0 obsgroup
cos_1_29        -0.1510458109909955 1.0 obsgroup
sin_1_29        -0.0960950233785839 1.0 obsgroup
intercept_1_30  -0.0127842308989558 1.0 obsgroup
cos_1_30        -0.1510458109909955 1.0 obsgroup
sin_1_30        -0.0960950233785839 1.0 obsgroup
intercept_1_31  -0.0127842308989558 1.0 obsgroup
cos_1_31        -0.1510458109909955 1.0 obsgroup
sin_1_31        -0.0960950233785839 1.0 obsgroup
intercept_1_32  -0.0127842308989558 1.0 obsgroup
cos_1_32        -0.1510458109909955 1.0 obsgroup
sin_1_32        -0.0960950233785839 1.0 obsgroup
intercept_1_33  -0.0127842308989558 1.0 obsgroup
cos_1_33        -0.1510458109909955 1.0 obsgroup
sin_1_33        -0.0960950233785839 1.0 obsgroup
intercept_1_34  -0.0127842308989558 1.0 obsgroup
cos_1_34        -0.1510458109909955 1.0 obsgroup
sin_1_34        -0.0960950233785839 1.0 obsgroup
intercept_1_35  -0.0127842308989558 1.0 obsgroup
cos_1_35        -0.1510458109909955 1.0 obsgroup
sin_1_35        -0.0960950233785839 1.0 obsgroup
intercept_1_36  -0.0127842308989558 1.0 obsgroup
cos_1_36        -0.1510458109909955 1.0 obsgroup
sin_1_36        -0.0960950233785839 1.0 obsgroup
intercept_1_37  -0.0127842308989558 1.0 obsgroup
cos_1_37        -0.1510458109909955 1.0 obsgroup
sin_1_37        -0.0960950233785839 1.0 obsgroup
intercept_1_38  -0.0127842308989558 1.0 obsgroup
cos_1_38        -0.1510458109909955 1.0 obsgroup
sin_1_38        -0.0960950233785839 1.0 obsgroup
intercept_1_39  -0.0127842308989558 1.0 obsgroup
cos_1_39        -0.1510458109909955 1.0 obsgroup
sin_1_39        -0.0960950233785839 1.0 obsgroup
intercept_1_40  -0.0127842308989558 1.0 obsgroup
cos_1_40        -0.1510458109909955 1.0 obsgroup
sin_1_40        -0.0960950233785839 1.0 obsgroup
intercept_1_41  -0.0127842308989558 1.0 obsgroup
cos_1_41        -0.1510458109909955 1.0 obsgroup
sin_1_41        -0.0960950233785839 1.0 obsgroup
intercept_1_42  -0.0127842308989558 1.0 obsgroup
cos_1_42        -0.1510458109909955 1.0 obsgroup
sin_1_42        -0.0960950233785839 1.0 obsgroup
intercept_1_43  -0.0127842308989558 1.0 obsgroup
cos_1_43        -0.1510458109909955 1.0 obsgroup
sin_1_43        -0.0960950233785839 1.0 obsgroup
intercept_1_44  -0.0127842308989558 1.0 obsgroup
cos_1_44        -0.1510458109909955 1.0 obsgroup
sin_1_44        -0.0960950233785839 1.0 obsgroup
intercept_1_45  -0.0127842308989558 1.0 obsgroup
cos_1_45        -0.1510458109909955 1.0 obsgroup
sin_1_45        -0.0960950233785839 1.0 obsgroup
intercept_1_46  -0.0127842308989558 1.0 obsgroup
cos_1_46        -0.1510458109909955 1.0 obsgroup
sin_1_46        -0.0960950233785839 1.0 obsgroup
intercept_1_47  -0.0127842308989558 1.0 obsgroup
cos_1_47        -0.1510458109909955 1.0 obsgroup
sin_1_47        -0.0960950233785839 1.0 obsgroup
intercept_1_48  -0.0127842308989558 1.0 obsgroup
cos_1_48        -0.1510458109909955 1.0 obsgroup
sin_1_48        -0.0960950233785839 1.0 obsgroup
intercept_1_49  -0.0127842308989558 1.0 obsgroup
cos_1_49        -0.1510458109909955 1.0 obsgroup
sin_1_49        -0.0960950233785839 1.0 obsgroup
intercept_1_50  -0.0127842308989558 1.0 obsgroup
cos_1_50        -0.1510458109909955 1.0 obsgroup
sin_1_50        -0.0960950233785839 1.0 obsgroup
intercept_2_1   0.0689755057860062 1.0 obsgroup
cos_2_1         -0.0097681719350203 1.0 obsgroup
sin_2_1         0.0066560094313827 1.0 obsgroup
intercept_2_2   0.0689755057860062 1.0 obsgroup
cos_2_2         -0.0097681719350203 1.0 obsgroup
sin_2_2         0.0066560094313827 1.0 obsgroup
intercept_2_3   0.0689755057860062 1.0 obsgroup
cos_2_3         -0.0097681719350203 1.0 obsgroup
sin_2_3         0.0066560094313827 1.0 obsgroup
intercept_2_4   0.0689755057860062 1.0 obsgroup
cos_2_4         -0.0097681719350203 1.0 obsgroup
sin_2_4         0.0066560094313827 1.0 obsgroup
intercept_2_5   0.0689755057860062 1.0 obsgroup
cos_2_5         -0.0097681719350203 1.0 obsgroup
sin_2_5         0.0066560094313827 1.0 obsgroup
intercept_2_6   0.0689755057860062 1.0 obsgroup
cos_2_6         -0.0097681719350203 1.0 obsgroup
sin_2_6         0.0066560094313827 1.0 obsgroup
intercept_2_7   0.0689755057860062 1.0 obsgroup
cos_2_7         -0.0097681719350203 1.0 obsgroup
sin_2_7         0.0066560094313827 1.0 obsgroup
intercept_2_8   0.0689755057860062 1.0 obsgroup
cos_2_8         -0.0097681719350203 1.0 obsgroup
sin_2_8         0.0066560094313827 1.0 obsgroup
intercept_2_9   0.0689755057860062 1.0 obsgroup
cos_2_9         -0.0097681719350203 1.0 obsgroup
sin_2_9         0.0066560094313827 1.0 obsgroup
intercept_2_10  0.0689755057860062 1.0 obsgroup
cos_2_10        -0.0097681719350203 1.0 obsgroup
sin_2_10        0.0066560094313827 1.0 obsgroup
intercept_2_11  0.0689755057860062 1.0 obsgroup
cos_2_11        -0.0097681719350203 1.0 obsgroup
sin_2_11        0.0066560094313827 1.0 obsgroup
intercept_2_12  0.0689755057860062 1.0 obsgroup
cos_2_12        -0.0097681719350203 1.0 obsgroup
sin_2_12        0.0066560094313827 1.0 obsgroup
intercept_2_13  0.0689755057860062 1.0 obsgroup
cos_2_13        -0.0097681719350203 1.0 obsgroup
sin_2_13        0.0066560094313827 1.0 obsgroup
intercept_2_14  0.0689755057860062 1.0 obsgroup
cos_2_14        -0.0097681719350203 1.0 obsgroup
sin_2_14        0.0066560094313827 1.0 obsgroup
intercept_2_15  0.0689755057860062 1.0 obsgroup
cos_2_15        -0.0097681719350203 1.0 obsgroup
sin_2_15        0.0066560094313827 1.0 obsgroup
intercept_2_16  0.0689755057860062 1.0 obsgroup
cos_2_16        -0.0097681719350203 1.0 obsgroup
sin_2_16        0.0066560094313827 1.0 obsgroup
intercept_2_17  0.0689755057860062 1.0 obsgroup
cos_2_17        -0.0097681719350203 1.0 obsgroup
sin_2_17        0.0066560094313827 1.0 obsgroup
intercept_2_18  0.0689755057860062 1.0 obsgroup
cos_2_18        -0.0097681719350203 1.0 obsgroup
sin_2_18        0.0066560094313827 1.0 obsgroup
intercept_2_19  0.0689755057860062 1.0 obsgroup
cos_2_19        -0.0097681719350203 1.0 obsgroup
sin_2_19        0.0066560094313827 1.0 obsgroup
intercept_2_20  0.0689755057860062 1.0 obsgroup
cos_2_20        -0.0097681719350203 1.0 obsgroup
sin_2_20        0.0066560094313827 1.0 obsgroup
intercept_2_21  0.0689755057860062 1.0 obsgroup
cos_2_21        -0.0097681719350203 1.0 obsgroup
sin_2_21        0.0066560094313827 1.0 obsgroup
intercept_2_22  0.0689755057860062 1.0 obsgroup
cos_2_22        -0.0097681719350203 1.0 obsgroup
sin_2_22        0.0066560094313827 1.0 obsgroup
intercept_2_23  0.0689755057860062 1.0 obsgroup
cos_2_23        -0.0097681719350203 1.0 obsgroup
sin_2_23        0.0066560094313827 1.0 obsgroup
intercept_2_24  0.0689755057860062 1.0 obsgroup
cos_2_24        -0.0097681719350203 1.0 obsgroup
sin_2_24        0.0066560094313827 1.0 obsgroup
intercept_2_25  0.0689755057860062 1.0 obsgroup
cos_2_25        -0.0097681719350203 1.0 obsgroup
sin_2_25        0.0066560094313827 1.0 obsgroup
intercept_2_26  0.0834292643995632 1.0 obsgroup
cos_2_26        0.004251387314595 1.0 obsgroup
sin_2_26        0.0147836213523884 1.0 obsgroup
intercept_2_27  0.0834292643995632 1.0 obsgroup
cos_2_27        0.004251387314595 1.0 obsgroup
sin_2_27        0.0147836213523884 1.0 obsgroup
intercept_2_28  0.0834292643995632 1.0 obsgroup
cos_2_28        0.004251387314595 1.0 obsgroup
sin_2_28        0.0147836213523884 1.0 obsgroup
intercept_2_29  0.0834292643995632 1.0 obsgroup
cos_2_29        0.004251387314595 1.0 obsgroup
sin_2_29        0.0147836213523884 1.0 obsgroup
intercept_2_30  0.0834292643995632 1.0 obsgroup
cos_2_30        0.004251387314595 1.0 obsgroup
sin_2_30        0.0147836213523884 1.0 obsgroup
intercept_2_31  0.0834292643995632 1.0 obsgroup
cos_2_31        0.004251387314595 1.0 obsgroup
sin_2_31        0.0147836213523884 1.0 obsgroup
intercept_2_32  0.0834292643995632 1.0 obsgroup
cos_2_32        0.004251387314595 1.0 obsgroup
sin_2_32        0.0147836213523884 1.0 obsgroup
intercept_2_33  0.0834292643995632 1.0 obsgroup
cos_2_33        0.004251387314595 1.0 obsgroup
sin_2_33        0.0147836213523884 1.0 obsgroup
intercept_2_34  0.0834292643995632 1.0 obsgroup
cos_2_34        0.004251387314595 1.0 obsgroup
sin_2_34        0.0147836213523884 1.0 obsgroup
intercept_2_35  0.0834292643995632 1.0 obsgroup
cos_2_35        0.004251387314595 1.0 obsgroup
sin_2_35        0.0147836213523884 1.0 obsgroup
intercept_2_36  0.0834292643995632 1.0 obsgroup
cos_2_36        0.004251387314595 1.0 obsgroup
sin_2_36        0.0147836213523884 1.0 obsgroup
intercept_2_37  0.0834292643995632 1.0 obsgroup
cos_2_37        0.004251387314595 1.0 obsgroup
sin_2_37        0.0147836213523884 1.0 obsgroup
intercept_2_38  0.0834292643995632 1.0 obsgroup
cos_2_38        0.004251387314595 1.0 obsgroup
sin_2_38        0.0147836213523884 1.0 obsgroup
intercept_2_39  0.0834292643995632 1.0 obsgroup
cos_2_39        0.004251387314595 1.0 obsgroup
sin_2_39        0.0147836213523884 1.0 obsgroup
intercept_2_40  0.0834292643995632 1.0 obsgroup
cos_2_40        0.004251387314595 1.0 obsgroup
sin_2_40        0.0147836213523884 1.0 obsgroup
intercept_2_41  0.0834292643995632 1.0 obsgroup
cos_2_41        0.004251387314595 1.0 obsgroup
sin_2_41        0.0147836213523884 1.0 obsgroup
intercept_2_42  0.0834292643995632 1.0 obsgroup
cos_2_42        0.004251387314595 1.0 obsgroup
sin_2_42        0.0147836213523884 1.0 obsgroup
intercept_2_43  0.0834292643995632 1.0 obsgroup
cos_2_43        0.004251387314595 1.0 obsgroup
sin_2_43        0.0147836213523884 1.0 obsgroup
intercept_2_44  0.0834292643995632 1.0 obsgroup
cos_2_44        0.004251387314595 1.0 obsgroup
sin_2_44        0.0147836213523884 1.0 obsgroup
intercept_2_45  0.0834292643995632 1.0 obsgroup
cos_2_45        0.004251387314595 1.0 obsgroup
sin_2_45        0.0147836213523884 1.0 obsgroup
intercept_2_46  0.0834292643995632 1.0 obsgroup
cos_2_46        0.004251387314595 1.0 obsgroup
sin_2_46        0.0147836213523884 1.0 obsgroup
intercept_2_47  0.0834292643995632 1.0 obsgroup
cos_2_47        0.004251387314595 1.0 obsgroup
sin_2_47        0.0147836213523884 1.0 obsgroup
intercept_2_48  0.0834292643995632 1.0 obsgroup
cos_2_48        0.004251387314595 1.0 obsgroup
sin_2_48        0.0147836213523884 1.0 obsgroup
intercept_2_49  0.0834292643995632 1.0 obsgroup
cos_2_49        0.004251387314595 1.0 obsgroup
sin_2_49        0.0147836213523884 1.0 obsgroup
intercept_2_50  0.0834292643995632 1.0 obsgroup
cos_2_50        0.004251387314595 1.0 obsgroup
sin_2_50        0.0147836213523884 1.0 obsgroup
intercept_3_1   0.1825883239359948 1.0 obsgroup
cos_3_1         0.0810016077818903 1.0 obsgroup
sin_3_1         0.0121506790817873 1.0 obsgroup
intercept_3_2   0.1825883239359948 1.0 obsgroup
cos_3_2         0.0810016077818903 1.0 obsgroup
sin_3_2         0.0121506790817873 1.0 obsgroup
intercept_3_3   0.1825883239359948 1.0 obsgroup
cos_3_3         0.0810016077818903 1.0 obsgroup
sin_3_3         0.0121506790817873 1.0 obsgroup
intercept_3_4   0.1825883239359948 1.0 obsgroup
cos_3_4         0.0810016077818903 1.0 obsgroup
sin_3_4         0.0121506790817873 1.0 obsgroup
intercept_3_5   0.1825883239359948 1.0 obsgroup
cos_3_5         0.0810016077818903 1.0 obsgroup
sin_3_5         0.0121506790817873 1.0 obsgroup
intercept_3_6   0.1825883239359948 1.0 obsgroup
cos_3_6         0.0810016077818903 1.0 obsgroup
sin_3_6         0.0121506790817873 1.0 obsgroup
intercept_3_7   0.1825883239359948 1.0 obsgroup
cos_3_7         0.0810016077818903 1.0 obsgroup
sin_3_7         0.0121506790817873 1.0 obsgroup
intercept_3_8   0.1825883239359948 1.0 obsgroup
cos_3_8         0.0810016077818903 1.0 obsgroup
sin_3_8         0.0121506790817873 1.0 obsgroup
intercept_3_9   0.1825883239359948 1.0 obsgroup
cos_3_9         0.0810016077818903 1.0 obsgroup
sin_3_9         0.0121506790817873 1.0 obsgroup
intercept_3_10  0.1825883239359948 1.0 obsgroup
cos_3_10        0.0810016077818903 1.0 obsgroup
sin_3_10        0.0121506790817873 1.0 obsgroup
intercept_3_11  0.1825883239359948 1.0 obsgroup
cos_3_11        0.0810016077818903 1.0 obsgroup
sin_3_11        0.0121506790817873 1.0 obsgroup
intercept_3_12  0.1825883239359948 1.0 obsgroup
cos_3_12        0.0810016077818903 1.0 obsgroup
sin_3_12        0.0121506790817873 1.0 obsgroup
intercept_3_13  0.1825883239359948 1.0 obsgroup
cos_3_13        0.0810016077818903 1.0 obsgroup
sin_3_13        0.0121506790817873 1.0 obsgroup
intercept_3_14  0.1825883239359948 1.0 obsgroup
cos_3_14        0.0810016077818903 1.0 obsgroup
sin_3_14        0.0121506790817873 1.0 obsgroup
intercept_3_15  0.1825883239359948 1.0 obsgroup
cos_3_15        0.0810016077818903 1.0 obsgroup
sin_3_15        0.0121506790817873 1.0 obsgroup
intercept_3_16  0.1825883239359948 1.0 obsgroup
cos_3_16        0.0810016077818903 1.0 obsgroup
sin_3_16        0.0121506790817873 1.0 obsgroup
intercept_3_17  0.1825883239359948 1.0 obsgroup
cos_3_17        0.0810016077818903 1.0 obsgroup
sin_3_17        0.0121506790817873 1.0 obsgroup
intercept_3_18  0.1825883239359948 1.0 obsgroup
cos_3_18        0.0810016077818903 1.0 obsgroup
sin_3_18        0.0121506790817873 1.0 obsgroup
intercept_3_19  0.1825883239359948 1.0 obsgroup
cos_3_19        0.0810016077818903 1.0 obsgroup
sin_3_19        0.0121506790817873 1.0 obsgroup
intercept_3_20  0.1825883239359948 1.0 obsgroup
cos_3_20        0.0810016077818903 1.0 obsgroup
sin_3_20        0.0121506790817873 1.0 obsgroup
intercept_3_21  0.1825883239359948 1.0 obsgroup
cos_3_21        0.0810016077818903 1.0 obsgroup
sin_3_21        0.0121506790817873 1.0 obsgroup
intercept_3_22  0.1825883239359948 1.0 obsgroup
cos_3_22        0.0810016077818903 1.0 obsgroup
sin_3_22        0.0121506790817873 1.0 obsgroup
intercept_3_23  0.1825883239359948 1.0 obsgroup
cos_3_23        0.0810016077818903 1.0 obsgroup
sin_3_23        0.0121506790817873 1.0 obsgroup
intercept_3_24  0.1825883239359948 1.0 obsgroup
cos_3_24        0.0810016077818903 1.0 obsgroup
sin_3_24        0.0121506790817873 1.0 obsgroup
intercept_3_25  0.1825883239359948 1.0 obsgroup
cos_3_25        0.0810016077818903 1.0 obsgroup
sin_3_25        0.0121506790817873 1.0 obsgroup
intercept_3_26  0.1690312315735527 1.0 obsgroup
cos_3_26        0.0736828518991683 1.0 obsgroup
sin_3_26        0.0009481041255277 1.0 obsgroup
intercept_3_27  0.1690312315735527 1.0 obsgroup
cos_3_27        0.0736828518991683 1.0 obsgroup
sin_3_27        0.0009481041255277 1.0 obsgroup
intercept_3_28  0.1690312315735527 1.0 obsgroup
cos_3_28        0.0736828518991683 1.0 obsgroup
sin_3_28        0.0009481041255277 1.0 obsgroup
intercept_3_29  0.1690312315735527 1.0 obsgroup
cos_3_29        0.0736828518991683 1.0 obsgroup
sin_3_29        0.0009481041255277 1.0 obsgroup
intercept_3_30  0.1690312315735527 1.0 obsgroup
cos_3_30        0.0736828518991683 1.0 obsgroup
sin_3_30        0.0009481041255277 1.0 obsgroup
intercept_3_31  0.1690312315735527 1.0 obsgroup
cos_3_31        0.0736828518991683 1.0 obsgroup
sin_3_31        0.0009481041255277 1.0 obsgroup
intercept_3_32  0.1690312315735527 1.0 obsgroup
cos_3_32        0.0736828518991683 1.0 obsgroup
sin_3_32        0.0009481041255277 1.0 obsgroup
intercept_3_33  0.1690312315735527 1.0 obsgroup
cos_3_33        0.0736828518991683 1.0 obsgroup
sin_3_33        0.0009481041255277 1.0 obsgroup
intercept_3_34  0.1690312315735527 1.0 obsgroup
cos_3_34        0.0736828518991683 1.0 obsgroup
sin_3_34        0.0009481041255277 1.0 obsgroup
intercept_3_35  0.1690312315735527 1.0 obsgroup
cos_3_35        0.0736828518991683 1.0 obsgroup
sin_3_35        0.0009481041255277 1.0 obsgroup
intercept_3_36  0.1690312315735527 1.0 obsgroup
cos_3_36        0.0736828518991683 1.0 obsgroup
sin_3_36        0.0009481041255277 1.0 obsgroup
intercept_3_37  0.1690312315735527 1.0 obsgroup
cos_3_37        0.0736828518991683 1.0 obsgroup
sin_3_37        0.0009481041255277 1.0 obsgroup
intercept_3_38  0.1690312315735527 1.0 obsgroup
cos_3_38        0.0736828518991683 1.0 obsgroup
sin_3_38        0.0009481041255277 1.0 obsgroup
intercept_3_39  0.1690312315735527 1.0 obsgroup
cos_3_39        0.0736828518991683 1.0 obsgroup
sin_3_39        0.0009481041255277 1.0 obsgroup
intercept_3_40  0.1690312315735527 1.0 obsgroup
cos_3_40        0.0736828518991683 1.0 obsgroup
sin_3_40        0.0009481041255277 1.0 obsgroup
intercept_3_41  0.1690312315735527 1.0 obsgroup
cos_3_41        0.0736828518991683 1.0 obsgroup
sin_3_41        0.0009481041255277 1.0 obsgroup
intercept_3_42  0.1690312315735527 1.0 obsgroup
cos_3_42        0.0736828518991683 1.0 obsgroup
sin_3_42        0.0009481041255277 1.0 obsgroup
intercept_3_43  0.1690312315735527 1.0 obsgroup
cos_3_43        0.0736828518991683 1.0 obsgroup
sin_3_43        0.0009481041255277 1.0 obsgroup
intercept_3_44  0.1690312315735527 1.0 obsgroup
cos_3_44        0.0736828518991683 1.0 obsgroup
sin_3_44        0.0009481041255277 1.0 obsgroup
intercept_3_45  0.1690312315735527 1.0 obsgroup
cos_3_45        0.0736828518991683 1.0 obsgroup
sin_3_45        0.0009481041255277 1.0 obsgroup
intercept_3_46  0.1690312315735527 1.0 obsgroup
cos_3_46        0.0736828518991683 1.0 obsgroup
sin_3_46        0.0009481041255277 1.0 obsgroup
intercept_3_47  0.1690312315735527 1.0 obsgroup
cos_3_47        0.0736828518991683 1.0 obsgroup
sin_3_47        0.0009481041255277 1.0 obsgroup
intercept_3_48  0.1690312315735527 1.0 obsgroup
cos_3_48        0.0736828518991683 1.0 obsgroup
sin_3_48        0.0009481041255277 1.0 obsgroup
intercept_3_49  0.1690312315735527 1.0 obsgroup
cos_3_49        0.0736828518991683 1.0 obsgroup
sin_3_49        0.0009481041255277 1.0 obsgroup
intercept_3_50  0.1690312315735527 1.0 obsgroup
cos_3_50        0.0736828518991683 1.0 obsgroup
sin_3_50        0.0009481041255277 1.0 obsgroup
intercept_4_1   0.0644126472826769 1.0 obsgroup
cos_4_1         -0.0131536048425804 1.0 obsgroup
sin_4_1         0.0066238472845565 1.0 obsgroup
intercept_4_2   0.0644126472826769 1.0 obsgroup